# created with PyMOL 2.5.5
@<TRIPOS>MOLECULE
*****
4 3 1                   
SMALL
USER_CHARGES
@<TRIPOS>ATOM
1	  C1	-0.014	1.184	0.007	C.2	1	UNL1	0.107	
2	  O1	0.003	-0.041	0.002	O.2	1	UNL1	-0.305	
3	  H1	0.910	1.784	0.003	 H	1	UNL1	0.099	
4	  H2	-0.954	1.759	0.016	 H	1	UNL1	0.099	
@<TRIPOS>BOND
1 1 3 1
2 1 4 1
3 1 2 2
@<TRIPOS>SUBSTRUCTURE
1	UNL1	1	GROUP	1 ****	UNL
