# created with PyMOL 2.5.5
@<TRIPOS>MOLECULE
*****
4 3 1                   
SMALL
USER_CHARGES
@<TRIPOS>ATOM
1	  N1	-0.012	1.005	0.008	N.3	1	UNL1	-0.344	
2	  H1	0.002	-0.004	0.002	 H	1	UNL1	0.115	
3	  H2	0.925	1.379	0.001	 H	1	UNL1	0.115	
4	  H3	-0.550	1.363	-0.767	 H	1	UNL1	0.115	
@<TRIPOS>BOND
1 1 2 1
2 1 3 1
3 1 4 1
@<TRIPOS>SUBSTRUCTURE
1	UNL1	1	GROUP	1 ****	UNL
