# created with PyMOL 2.5.5
@<TRIPOS>MOLECULE
*****
5 4 1                   
SMALL
USER_CHARGES
@<TRIPOS>ATOM
1	  C1	-0.016	1.338	0.009	C.2	1	UNL1	0.292	
2	  O1	0.002	-0.004	0.002	O.3	1	UNL1	-0.483	
3	  O2	1.022	1.956	0.003	O.co2	1	UNL1	-0.255	
4	  H1	-0.959	1.865	0.017	 H	1	UNL1	0.151	
5	  H2	-0.854	-0.455	0.008	 H	1	UNL1	0.295	
@<TRIPOS>BOND
1 1 2 1
2 1 3 2
3 1 4 1
4 2 5 1
@<TRIPOS>SUBSTRUCTURE
1	UNL1	1	GROUP	1 ****	UNL
