# created with PyMOL 2.5.5
@<TRIPOS>MOLECULE
water
5 4 1                   
SMALL
USER_CHARGES
@<TRIPOS>ATOM
1	 O1	0.203	0.200	0.036	O.co2	1	UNK1	0.000	
2	 C1	1.367	0.104	0.377	C.2	1	UNK1	0.000	
3	 H1	1.789	-0.640	1.068	 H	1	UNK1	0.000	
4	 H2	1.825	1.548	-0.678	 H	1	UNK1	0.000	
5	 O2	2.310	0.941	-0.081	O.3	1	UNK1	0.000	
@<TRIPOS>BOND
1 1 2 2
2 2 3 1
3 2 5 1
4 4 5 1
@<TRIPOS>SUBSTRUCTURE
1	UNK1	1	GROUP	1 W	UNK
