# created with PyMOL 2.5.5
@<TRIPOS>MOLECULE
ZJP
8 7 1                   
SMALL
USER_CHARGES
@<TRIPOS>ATOM
1	  C1	0.815	-0.538	0.493	C.3	1	ROOT1	-0.094	
2	  C2	2.155	-0.052	-0.012	C.3	1	ROOT1	-0.094	
3	  H1	0.000	0.001	0.001	 H	1	ROOT1	0.031	
4	  H2	0.693	-1.607	0.291	 H	1	ROOT1	0.031	
5	  H3	0.730	-0.380	1.572	 H	1	ROOT1	0.031	
6	  H4	2.970	-0.591	0.480	 H	1	ROOT1	0.031	
7	  H5	2.277	1.017	0.191	 H	1	ROOT1	0.031	
8	  H6	2.240	-0.210	-1.091	 H	1	ROOT1	0.031	
@<TRIPOS>BOND
1 1 2 1
2 1 3 1
3 1 4 1
4 1 5 1
5 2 6 1
6 2 7 1
7 2 8 1
@<TRIPOS>SUBSTRUCTURE
1	ROOT1	1	GROUP	1 ****	ROOT
