# created with PyMOL 2.5.5
@<TRIPOS>MOLECULE
*****
5 4 1                   
SMALL
USER_CHARGES
@<TRIPOS>ATOM
1	  C1	0.000	-0.000	0.000	C.3	1	UNK0	-0.078	
2	  H1	0.000	-0.890	-0.629	 H	1	UNK0	0.019	
3	  H2	0.000	0.890	-0.629	 H	1	UNK0	0.019	
4	  H3	-0.890	-0.000	0.629	 H	1	UNK0	0.019	
5	  H4	0.890	-0.000	0.629	 H	1	UNK0	0.019	
@<TRIPOS>BOND
1 1 2 1
2 1 3 1
3 1 4 1
4 1 5 1
@<TRIPOS>SUBSTRUCTURE
1	UNK0	1	GROUP	1 ****	UNK
