# created with PyMOL 2.5.5
@<TRIPOS>MOLECULE
1004
5 4 1                   
SMALL
USER_CHARGES
@<TRIPOS>ATOM
1	 H02	-0.295	-1.032	-0.759	 H	1	UNK0	0.000	
2	 H04	-0.083	-0.320	1.422	 H	1	UNK0	0.000	
3	 H03	-0.361	1.218	-0.271	 H	1	UNK0	0.000	
4	 H01	1.620	0.057	-0.083	 H	1	UNK0	0.000	
5	   P	0.220	-0.019	0.077	P.3	1	UNK0	0.000	
@<TRIPOS>BOND
1 4 5 1
2 1 5 1
3 2 5 1
4 3 5 1
@<TRIPOS>SUBSTRUCTURE
1	UNK0	1	GROUP	1 ****	UNK
