# created with PyMOL 2.5.5
@<TRIPOS>MOLECULE
ZJP
9 8 1                   
SMALL
USER_CHARGES
@<TRIPOS>ATOM
1	  C1	0.597	-0.195	1.909	C.2	1	ROOT1	0.000	
2	  C2	1.001	-0.622	0.707	C.2	1	ROOT1	-0.094	
3	  C3	2.194	-0.089	-0.015	C.3	1	ROOT1	-0.094	
4	 H01	-0.281	-0.623	2.384	 H	1	ROOT1	0.000	
5	 H02	1.127	0.585	2.446	 H	1	ROOT1	0.000	
6	 H03	0.437	-1.406	0.206	 H	1	ROOT1	0.000	
7	  H6	2.909	-0.896	-0.202	 H	1	ROOT1	0.031	
8	  H7	2.705	0.695	0.553	 H	1	ROOT1	0.031	
9	  H8	1.890	0.331	-0.979	 H	1	ROOT1	0.031	
@<TRIPOS>BOND
1 1 2 2
2 1 4 1
3 1 5 1
4 2 3 1
5 2 6 1
6 3 7 1
7 3 8 1
8 3 9 1
@<TRIPOS>SUBSTRUCTURE
1	ROOT1	1	GROUP	1 ****	ROOT
