# created with PyMOL 2.5.5
@<TRIPOS>MOLECULE
ZJP
11 10 1                 
SMALL
USER_CHARGES
@<TRIPOS>ATOM
1	  C1	0.687	-0.300	2.001	C.3	1	ROOT1	0.000	
2	  C2	0.801	-0.474	0.496	C.3	1	ROOT1	-0.094	
3	  C3	2.188	-0.108	-0.007	C.3	1	ROOT1	-0.094	
4	  H1	-0.319	-0.570	2.338	 H	1	ROOT1	0.000	
5	  H2	1.403	-0.940	2.525	 H	1	ROOT1	0.000	
6	  H3	0.876	0.738	2.292	 H	1	ROOT1	0.000	
7	  H4	0.055	0.156	-0.002	 H	1	ROOT1	0.000	
8	  H5	0.580	-1.513	0.230	 H	1	ROOT1	0.000	
9	  H6	2.952	-0.741	0.454	 H	1	ROOT1	0.031	
10	  H7	2.425	0.937	0.221	 H	1	ROOT1	0.031	
11	  H8	2.245	-0.241	-1.092	 H	1	ROOT1	0.031	
@<TRIPOS>BOND
1 1 2 1
2 1 4 1
3 1 5 1
4 1 6 1
5 2 3 1
6 2 7 1
7 2 8 1
8 3 9 1
9 3 10 1
10 3 11 1
@<TRIPOS>SUBSTRUCTURE
1	ROOT1	1	GROUP	1 ****	ROOT
