# created with PyMOL 2.5.5
@<TRIPOS>MOLECULE
tclcactvs000B1O4Hs
6 5 1                   
SMALL
USER_CHARGES
@<TRIPOS>ATOM
1	 O1	-0.317	0.110	1.397	O.3	1	UNK0	0.000	
2	 O1	-0.687	1.217	-0.722	O.2	1	UNK0	0.000	
3	 O2	0.084	-1.165	-0.676	O.2	1	UNK0	0.000	
4	 H1	0.929	-0.757	0.364	 H	1	UNK0	0.000	
5	 S1	0.147	0.198	-0.162	S.3	1	UNK0	0.000	
6	 H2	-1.251	0.405	1.438	 H	1	UNK0	0.000	
@<TRIPOS>BOND
1 1 6 1
2 4 5 1
3 1 5 1
4 2 5 2
5 3 5 2
@<TRIPOS>SUBSTRUCTURE
1	UNK0	1	GROUP	1 ****	UNK
