# created with PyMOL 2.5.5
@<TRIPOS>MOLECULE
water
3 2 1                   
SMALL
USER_CHARGES
@<TRIPOS>ATOM
1	  O1	0.000	0.000	0.000	O.3	1	UNK1	0.000	
2	  H1	0.929	0.028	0.240	 H	1	UNK1	0.000	
3	  H2	-0.224	-0.911	-0.202	 H	1	UNK1	0.000	
@<TRIPOS>BOND
1 1 2 1
2 1 3 1
@<TRIPOS>SUBSTRUCTURE
1	UNK1	1	GROUP	1 W	UNK
