# created with PyMOL 2.5.5
@<TRIPOS>MOLECULE
*****
4 3 1                   
SMALL
USER_CHARGES
@<TRIPOS>ATOM
1	  C1	0.607	0.000	-0.000	C.2	1	UNK0	0.107	
2	  O1	-0.600	0.000	0.000	O.2	1	UNK0	-0.305	
3	  H1	1.147	0.935	0.002	 H	1	UNK0	0.099	
4	  H2	1.147	-0.935	0.002	 H	1	UNK0	0.099	
@<TRIPOS>BOND
1 1 2 2
2 1 3 1
3 1 4 1
@<TRIPOS>SUBSTRUCTURE
1	UNK0	1	GROUP	1 ****	UNK
