# created with PyMOL 2.5.5
@<TRIPOS>MOLECULE
280
34 39 1                 
SMALL
USER_CHARGES
@<TRIPOS>ATOM
1	 C01	0.704	0.874	0.000	C.2	1	UNK1	0.000	
2	 C02	-0.704	0.874	0.000	C.2	1	UNK1	0.000	
3	 C03	1.412	-0.347	0.000	C.2	1	UNK1	0.000	
4	 C04	-1.412	-0.347	0.000	C.2	1	UNK1	0.000	
5	 C05	0.715	-1.588	0.000	C.2	1	UNK1	0.000	
6	 C06	-0.715	-1.588	0.000	C.2	1	UNK1	0.000	
7	 C07	1.406	2.104	0.000	C.2	1	UNK1	0.000	
8	 C08	-1.406	2.104	0.000	C.2	1	UNK1	0.000	
9	 C09	2.831	-0.321	0.000	C.2	1	UNK1	0.000	
10	 C10	-2.831	-0.321	0.000	C.2	1	UNK1	0.000	
11	 C11	0.697	3.313	0.000	C.2	1	UNK1	0.000	
12	 C12	-0.698	3.313	0.000	C.2	1	UNK1	0.000	
13	 C13	2.806	2.106	0.000	C.2	1	UNK1	0.000	
14	 C14	-2.806	2.106	0.000	C.2	1	UNK1	0.000	
15	 C15	1.484	-2.778	0.000	C.2	1	UNK1	0.000	
16	 C16	-1.483	-2.778	0.000	C.2	1	UNK1	0.000	
17	 C17	3.512	0.905	0.000	C.2	1	UNK1	0.000	
18	 C18	-3.513	0.904	0.000	C.2	1	UNK1	0.000	
19	 C19	3.550	-1.519	0.000	C.2	1	UNK1	0.000	
20	 C20	-3.550	-1.520	0.000	C.2	1	UNK1	0.000	
21	 C21	2.878	-2.737	0.000	C.2	1	UNK1	0.000	
22	 C22	-2.878	-2.737	0.000	C.2	1	UNK1	0.000	
23	 H23	1.223	4.261	0.000	 H	1	UNK1	0.000	
24	 H24	-1.223	4.261	0.000	 H	1	UNK1	0.000	
25	 H25	3.357	3.040	0.000	 H	1	UNK1	0.000	
26	 H26	-3.357	3.040	0.000	 H	1	UNK1	0.000	
27	 H27	1.042	-3.760	0.000	 H	1	UNK1	0.000	
28	 H28	-1.041	-3.760	0.000	 H	1	UNK1	0.000	
29	 H29	4.596	0.933	0.000	 H	1	UNK1	0.000	
30	 H30	-4.596	0.933	0.000	 H	1	UNK1	0.000	
31	 H31	4.634	-1.516	0.000	 H	1	UNK1	0.000	
32	 H32	-4.634	-1.516	0.000	 H	1	UNK1	0.000	
33	 H33	3.444	-3.660	0.000	 H	1	UNK1	0.000	
34	 H34	-3.443	-3.660	0.000	 H	1	UNK1	0.000	
@<TRIPOS>BOND
1 1 2 ar
2 1 3 ar
3 1 7 ar
4 2 4 ar
5 2 8 ar
6 3 5 ar
7 3 9 ar
8 4 6 ar
9 4 10 ar
10 5 6 ar
11 5 15 ar
12 6 16 ar
13 7 11 ar
14 7 13 ar
15 8 12 ar
16 8 14 ar
17 9 17 ar
18 9 19 ar
19 10 18 ar
20 10 20 ar
21 11 12 ar
22 11 23 1
23 12 24 1
24 13 17 ar
25 13 25 1
26 14 18 ar
27 14 26 1
28 15 21 ar
29 15 27 1
30 16 22 ar
31 16 28 1
32 17 29 1
33 18 30 1
34 19 21 ar
35 19 31 1
36 20 22 ar
37 20 32 1
38 21 33 1
39 22 34 1
@<TRIPOS>SUBSTRUCTURE
1	UNK1	1	GROUP	1 ****	UNK
