# created with PyMOL 2.5.5
@<TRIPOS>MOLECULE
9153
32 36 1                 
SMALL
USER_CHARGES
@<TRIPOS>ATOM
1	 C01	-0.154	-0.580	0.000	C.2	1	UNK1	0.000	
2	 C02	-0.404	0.782	0.000	C.2	1	UNK1	0.000	
3	 C03	-1.358	-1.279	0.000	C.2	1	UNK1	0.000	
4	 C04	1.115	-1.160	0.000	C.2	1	UNK1	0.000	
5	 C05	-1.847	0.981	0.000	C.2	1	UNK1	0.000	
6	 C06	-2.444	-0.309	0.000	C.2	1	UNK1	0.000	
7	 C07	2.225	-0.250	0.000	C.2	1	UNK1	0.000	
8	 C08	0.657	1.666	0.000	C.2	1	UNK1	0.000	
9	 C09	1.975	1.162	0.000	C.2	1	UNK1	0.000	
10	 C10	-1.345	-2.660	-0.000	C.2	1	UNK1	0.000	
11	 C11	1.107	-2.579	0.000	C.2	1	UNK1	0.000	
12	 C12	-2.620	2.127	0.000	C.2	1	UNK1	0.000	
13	 C13	-3.818	-0.462	-0.000	C.2	1	UNK1	0.000	
14	 C14	-0.102	-3.308	-0.000	C.2	1	UNK1	0.000	
15	 C15	3.568	-0.682	0.000	C.2	1	UNK1	0.000	
16	 C15	3.057	2.056	-0.000	C.2	1	UNK1	0.000	
17	 C17	-4.009	1.974	-0.000	C.2	1	UNK1	0.000	
18	 C18	-4.601	0.696	-0.000	C.2	1	UNK1	0.000	
19	 C19	4.626	0.228	-0.000	C.2	1	UNK1	0.000	
20	 C20	4.372	1.594	-0.001	C.2	1	UNK1	0.000	
21	 H21	0.473	2.737	0.000	 H	1	UNK1	0.000	
22	 H22	-2.262	-3.238	-0.001	 H	1	UNK1	0.000	
23	 H23	2.040	-3.138	0.000	 H	1	UNK1	0.000	
24	 H24	-2.176	3.116	0.000	 H	1	UNK1	0.000	
25	 H25	-4.283	-1.441	-0.001	 H	1	UNK1	0.000	
26	 H26	-0.067	-4.394	-0.000	 H	1	UNK1	0.000	
27	 H27	3.814	-1.741	0.000	 H	1	UNK1	0.000	
28	 H28	2.886	3.131	-0.001	 H	1	UNK1	0.000	
29	 H29	-4.646	2.855	-0.000	 H	1	UNK1	0.000	
30	 H30	-5.684	0.611	-0.001	 H	1	UNK1	0.000	
31	 H31	5.651	-0.133	-0.000	 H	1	UNK1	0.000	
32	 H32	5.196	2.301	-0.001	 H	1	UNK1	0.000	
@<TRIPOS>BOND
1 1 2 ar
2 1 3 ar
3 1 4 ar
4 2 5 ar
5 2 8 ar
6 3 6 ar
7 3 10 ar
8 4 7 ar
9 4 11 ar
10 5 6 ar
11 5 12 ar
12 6 13 ar
13 7 9 ar
14 7 15 ar
15 8 9 ar
16 8 21 1
17 9 16 ar
18 10 14 ar
19 10 22 1
20 11 14 ar
21 11 23 1
22 12 17 ar
23 12 24 1
24 13 18 ar
25 13 25 1
26 14 26 1
27 15 19 ar
28 15 27 1
29 16 20 ar
30 16 28 1
31 17 18 ar
32 17 29 1
33 18 30 1
34 19 20 ar
35 19 31 1
36 20 32 1
@<TRIPOS>SUBSTRUCTURE
1	UNK1	1	GROUP	1 ****	UNK
