# created with PyMOL 2.5.5
@<TRIPOS>MOLECULE
full_87
100 126 1               
SMALL
USER_CHARGES
@<TRIPOS>ATOM
1	 C01	16.804	11.381	34.626	C.3	1	UNK1	0.000	
2	 C02	5.386	6.080	29.119	C.3	1	UNK1	0.000	
3	 C03	4.792	5.268	30.296	C.3	1	UNK1	0.000	
4	 C04	6.466	7.131	29.463	C.3	1	UNK1	0.000	
5	 C05	6.053	2.812	31.730	C.3	1	UNK1	0.000	
6	 C06	5.719	4.111	32.484	C.3	1	UNK1	0.000	
7	 C07	5.551	5.377	31.624	C.3	1	UNK1	0.000	
8	 C08	6.985	5.770	31.463	C.2	1	UNK1	0.000	
9	 C09	16.913	9.967	34.092	C.3	1	UNK1	0.000	
10	 C10	7.436	6.615	30.476	C.2	1	UNK1	0.000	
11	 C11	7.125	7.411	28.109	C.3	1	UNK1	0.000	
12	 C12	7.067	6.077	27.340	C.3	1	UNK1	0.000	
13	 C13	6.076	5.176	28.081	C.3	1	UNK1	0.000	
14	 C14	8.498	5.549	27.337	C.3	1	UNK1	0.000	
15	 C16	9.352	6.813	27.272	C.3	1	UNK1	0.000	
16	 C18	9.320	7.915	29.462	C.3	1	UNK1	0.000	
17	 C19	10.792	7.604	29.102	C.3	1	UNK1	0.000	
18	 C20	8.772	6.979	30.502	C.2	1	UNK1	0.000	
19	 C21	10.735	6.646	27.898	C.3	1	UNK1	0.000	
20	 C22	8.595	7.853	28.111	C.3	1	UNK1	0.000	
21	 C24	12.352	2.688	35.878	C.3	1	UNK1	0.000	
22	 C25	7.402	2.964	33.778	C.3	1	UNK1	0.000	
23	 C26	6.978	4.368	33.358	C.3	1	UNK1	0.000	
24	 C27	8.822	2.891	34.353	C.3	1	UNK1	0.000	
25	 C28	10.686	1.315	34.640	C.3	1	UNK1	0.000	
26	 C29	9.192	1.498	34.886	C.3	1	UNK1	0.000	
27	 C30	7.824	5.201	32.430	C.2	1	UNK1	0.000	
28	 C31	9.936	3.295	33.375	C.3	1	UNK1	0.000	
29	 C32	11.148	2.428	33.716	C.3	1	UNK1	0.000	
30	 C33	12.358	3.072	34.385	C.3	1	UNK1	0.000	
31	 C34	7.067	2.054	32.590	C.3	1	UNK1	0.000	
32	 C35	9.025	1.348	36.402	C.3	1	UNK1	0.000	
33	 C36	10.179	4.820	33.373	C.3	1	UNK1	0.000	
34	 C37	11.414	1.476	35.972	C.3	1	UNK1	0.000	
35	 C38	9.183	5.515	32.447	C.2	1	UNK1	0.000	
36	 C39	12.708	4.464	33.840	C.3	1	UNK1	0.000	
37	 C40	11.636	5.131	32.945	C.3	1	UNK1	0.000	
38	 C41	13.591	5.273	36.205	C.2	1	UNK1	0.000	
39	 C42	13.388	5.440	34.729	C.2	1	UNK1	0.000	
40	 C43	9.617	6.507	31.533	C.2	1	UNK1	0.000	
41	 C44	11.787	6.681	32.839	C.3	1	UNK1	0.000	
42	 C45	11.669	7.047	30.250	C.3	1	UNK1	0.000	
43	 C46	10.984	7.175	31.616	C.3	1	UNK1	0.000	
44	 C47	13.258	7.210	32.986	C.3	1	UNK1	0.000	
45	 C48	13.276	8.752	32.989	C.3	1	UNK1	0.000	
46	 C49	13.766	6.655	34.281	C.2	1	UNK1	0.000	
47	 C50	15.804	12.367	34.008	C.3	1	UNK1	0.000	
48	 C51	15.486	9.108	36.706	C.2	1	UNK1	0.000	
49	 C52	15.921	12.841	36.385	C.3	1	UNK1	0.000	
50	 C53	15.721	13.500	35.033	C.3	1	UNK1	0.000	
51	 C54	14.254	6.570	36.495	C.2	1	UNK1	0.000	
52	 C55	15.667	9.074	34.067	C.3	1	UNK1	0.000	
53	 C56	15.269	8.241	37.828	C.2	1	UNK1	0.000	
54	 C57	15.547	8.399	39.263	C.2	1	UNK1	0.000	
55	 C58	16.074	10.461	37.069	C.3	1	UNK1	0.000	
56	 C59	15.126	8.608	35.417	C.2	1	UNK1	0.000	
57	 C60	14.436	11.803	33.645	C.3	1	UNK1	0.000	
58	 C61	15.078	11.275	37.946	C.3	1	UNK1	0.000	
59	 C62	14.684	9.371	32.887	C.3	1	UNK1	0.000	
60	 C63	16.682	11.523	36.137	C.3	1	UNK1	0.000	
61	 C64	14.557	10.845	32.474	C.3	1	UNK1	0.000	
62	 C65	14.413	7.379	35.374	C.2	1	UNK1	0.000	
63	 C66	14.642	12.449	37.096	C.3	1	UNK1	0.000	
64	 C67	10.353	1.776	37.027	C.3	1	UNK1	0.000	
65	 C68	11.955	3.596	37.054	C.3	1	UNK1	0.000	
66	 C69	10.494	3.260	37.360	C.3	1	UNK1	0.000	
67	 C70	12.235	5.101	36.917	C.3	1	UNK1	0.000	
68	 C72	12.087	5.851	38.276	C.3	1	UNK1	0.000	
69	 C74	15.141	7.298	39.920	C.2	1	UNK1	0.000	
70	 C75	14.586	6.253	38.990	C.2	1	UNK1	0.000	
71	 C76	13.200	5.691	39.330	C.3	1	UNK1	0.000	
72	 C78	14.695	6.982	37.703	C.2	1	UNK1	0.000	
73	 H08	11.927	5.998	30.062	 H	1	UNK1	0.000	
74	 H01	6.585	4.333	28.563	 H	1	UNK1	0.000	
75	 H02	5.340	4.749	27.391	 H	1	UNK1	0.000	
76	 H03	7.942	1.791	31.987	 H	1	UNK1	0.000	
77	 H04	8.168	1.903	36.798	 H	1	UNK1	0.000	
78	 H05	4.652	4.225	29.992	 H	1	UNK1	0.000	
79	 H06	3.771	5.631	30.479	 H	1	UNK1	0.000	
80	 H07	6.499	3.007	30.748	 H	1	UNK1	0.000	
81	 H13	16.002	9.268	39.711	 H	1	UNK1	0.000	
82	 H14	15.234	7.155	40.988	 H	1	UNK1	0.000	
83	 H16	6.515	8.146	27.567	 H	1	UNK1	0.000	
84	 H17	8.712	4.974	28.246	 H	1	UNK1	0.000	
85	 H18	10.912	5.604	28.185	 H	1	UNK1	0.000	
86	 H24	11.142	5.546	38.742	 H	1	UNK1	0.000	
87	 H27	12.838	6.156	40.257	 H	1	UNK1	0.000	
88	 H28	9.241	8.930	29.873	 H	1	UNK1	0.000	
89	 H31	14.248	13.269	37.706	 H	1	UNK1	0.000	
90	 H32	14.202	10.716	38.291	 H	1	UNK1	0.000	
91	 H34	14.795	14.080	34.969	 H	1	UNK1	0.000	
92	 H35	13.791	12.636	33.338	 H	1	UNK1	0.000	
93	 H36	13.685	10.977	31.822	 H	1	UNK1	0.000	
94	 H37	9.823	3.903	36.795	 H	1	UNK1	0.000	
95	 H39	6.727	4.980	34.234	 H	1	UNK1	0.000	
96	 H42	8.625	0.719	34.366	 H	1	UNK1	0.000	
97	 H48	17.699	9.452	34.664	 H	1	UNK1	0.000	
98	 H49	12.744	9.152	33.863	 H	1	UNK1	0.000	
99	 H59	11.255	7.096	33.714	 H	1	UNK1	0.000	
100	 H92	16.504	13.500	37.043	 H	1	UNK1	0.000	
@<TRIPOS>BOND
1 1 9 1
2 2 3 1
3 2 4 1
4 2 13 1
5 3 7 1
6 3 78 1
7 3 79 1
8 4 10 1
9 4 11 1
10 5 6 1
11 5 31 1
12 5 80 1
13 6 7 1
14 6 23 1
15 7 8 1
16 8 10 ar
17 8 27 ar
18 9 97 1
19 10 18 ar
20 11 12 1
21 11 20 1
22 11 83 1
23 12 13 1
24 12 14 1
25 13 74 1
26 13 75 1
27 14 15 1
28 14 84 1
29 15 19 1
30 15 20 1
31 16 17 1
32 16 18 1
33 16 20 1
34 16 88 1
35 17 19 1
36 17 42 1
37 18 40 ar
38 19 85 1
39 21 30 1
40 21 34 1
41 21 65 1
42 22 23 1
43 22 24 1
44 22 31 1
45 23 27 1
46 23 95 1
47 24 26 1
48 24 28 1
49 25 26 1
50 25 29 1
51 25 34 1
52 26 32 1
53 26 96 1
54 27 35 ar
55 28 29 1
56 28 33 1
57 29 30 1
58 30 36 1
59 31 76 1
60 32 64 1
61 32 77 1
62 33 35 1
63 33 37 1
64 34 64 1
65 35 40 ar
66 36 37 1
67 36 39 1
68 37 41 1
69 38 39 ar
70 38 51 ar
71 38 67 1
72 39 46 ar
73 40 43 1
74 41 43 1
75 41 44 1
76 41 99 1
77 42 43 1
78 42 73 1
79 44 45 1
80 44 46 1
81 45 59 1
82 45 98 1
83 46 62 ar
84 1 47 1
85 47 50 1
86 47 57 1
87 48 53 ar
88 48 55 1
89 48 56 ar
90 49 50 1
91 49 60 1
92 49 63 1
93 49 100 1
94 50 91 1
95 51 62 ar
96 51 72 ar
97 9 52 1
98 52 56 1
99 52 59 1
100 53 54 ar
101 53 72 ar
102 54 69 ar
103 54 81 1
104 55 58 1
105 55 60 1
106 56 62 ar
107 57 61 1
108 57 92 1
109 58 63 1
110 58 90 1
111 59 61 1
112 1 60 1
113 61 93 1
114 63 89 1
115 64 66 1
116 65 66 1
117 65 67 1
118 66 94 1
119 67 68 1
120 68 71 1
121 68 86 1
122 69 70 ar
123 69 82 1
124 70 71 1
125 70 72 ar
126 71 87 1
@<TRIPOS>SUBSTRUCTURE
1	UNK1	1	GROUP	1 ****	UNK
