# created with PyMOL 2.5.5
@<TRIPOS>MOLECULE
full_87
138 158 1               
SMALL
USER_CHARGES
@<TRIPOS>ATOM
1	 C01	43.681	30.978	29.263	C.3	1	UNK1	0.000	
2	 C02	43.763	30.956	30.790	C.3	1	UNK1	0.000	
3	 C03	42.253	30.848	28.722	C.3	1	UNK1	0.000	
4	 C04	40.673	32.757	29.612	C.3	1	UNK1	0.000	
5	 C06	39.121	32.031	27.932	C.3	1	UNK1	0.000	
6	 C07	40.517	31.874	27.331	C.3	1	UNK1	0.000	
7	 C08	39.337	32.018	29.440	C.3	1	UNK1	0.000	
8	 C09	41.528	32.180	28.469	C.3	1	UNK1	0.000	
9	 C10	40.193	33.322	32.017	C.3	1	UNK1	0.000	
10	 C11	40.739	34.120	33.183	C.3	1	UNK1	0.000	
11	 C12	41.248	32.715	31.058	C.3	1	UNK1	0.000	
12	 C13	42.687	33.339	31.113	C.3	1	UNK1	0.000	
13	 C14	43.805	32.328	31.506	C.3	1	UNK1	0.000	
14	 C15	40.829	30.457	26.851	C.3	1	UNK1	0.000	
15	 C16	44.468	31.625	36.058	C.3	1	UNK1	0.000	
16	 C19	43.863	32.076	33.020	C.3	1	UNK1	0.000	
17	 C20	44.916	32.858	35.269	C.3	1	UNK1	0.000	
18	 C21	44.975	32.870	33.696	C.3	1	UNK1	0.000	
19	 C22	42.175	36.169	33.720	C.3	1	UNK1	0.000	
20	 C23	44.654	36.569	34.427	C.3	1	UNK1	0.000	
21	 C24	45.000	35.111	34.684	C.3	1	UNK1	0.000	
22	 C25	43.612	36.458	33.307	C.3	1	UNK1	0.000	
23	 C26	41.609	35.236	32.644	C.3	1	UNK1	0.000	
24	 C27	44.516	37.632	35.578	C.3	1	UNK1	0.000	
25	 C28	42.779	34.737	31.780	C.3	1	UNK1	0.000	
26	 C29	44.071	35.225	32.444	C.3	1	UNK1	0.000	
27	 C30	45.052	34.399	33.320	C.3	1	UNK1	0.000	
28	 C31	44.079	34.114	35.425	C.3	1	UNK1	0.000	
29	 C32	42.247	30.207	27.330	C.3	1	UNK1	0.000	
30	 C33	43.703	34.431	36.820	C.3	1	UNK1	0.000	
31	 C34	43.942	37.295	36.982	C.3	1	UNK1	0.000	
32	 C36	44.251	31.655	37.621	C.3	1	UNK1	0.000	
33	 C37	43.689	31.014	40.426	C.3	1	UNK1	0.000	
34	 C38	45.097	32.464	38.691	C.3	1	UNK1	0.000	
35	 C39	44.890	31.915	40.140	C.3	1	UNK1	0.000	
36	 C40	43.850	30.713	41.910	C.3	1	UNK1	0.000	
37	 C41	42.661	34.472	41.154	C.3	1	UNK1	0.000	
38	 C42	44.955	34.873	37.511	C.3	1	UNK1	0.000	
39	 C43	42.933	37.973	39.165	C.2	1	UNK1	0.000	
40	 C44	42.941	36.455	39.405	C.3	1	UNK1	0.000	
41	 C45	45.301	34.015	38.721	C.3	1	UNK1	0.000	
42	 C46	44.429	36.211	39.381	C.3	1	UNK1	0.000	
43	 C47	41.802	37.012	41.548	C.3	1	UNK1	0.000	
44	 C48	44.939	34.888	39.935	C.3	1	UNK1	0.000	
45	 C49	42.164	35.885	40.579	C.3	1	UNK1	0.000	
46	 C50	44.881	36.346	37.899	C.3	1	UNK1	0.000	
47	 C51	43.451	38.418	37.915	C.2	1	UNK1	0.000	
48	 C52	41.888	36.600	42.933	C.2	1	UNK1	0.000	
49	 C53	44.213	34.292	41.153	C.3	1	UNK1	0.000	
50	 C54	43.551	39.785	37.691	C.2	1	UNK1	0.000	
51	 C55	41.914	34.213	42.541	C.3	1	UNK1	0.000	
52	 C56	42.163	32.890	43.246	C.3	1	UNK1	0.000	
53	 C57	43.604	32.611	43.632	C.3	1	UNK1	0.000	
54	 C58	44.445	31.992	42.529	C.3	1	UNK1	0.000	
55	 C59	44.871	32.892	41.350	C.3	1	UNK1	0.000	
56	 C60	41.992	35.395	43.460	C.2	1	UNK1	0.000	
57	 C61	42.764	38.866	40.246	C.2	1	UNK1	0.000	
58	 C62	42.756	38.216	41.603	C.3	1	UNK1	0.000	
59	 C64	42.876	40.229	40.008	C.2	1	UNK1	0.000	
60	 C65	43.231	40.682	38.725	C.2	1	UNK1	0.000	
61	 C66	42.414	38.898	42.963	C.3	1	UNK1	0.000	
62	 C67	42.258	37.659	43.809	C.2	1	UNK1	0.000	
63	 C70	42.329	35.591	44.916	C.2	1	UNK1	0.000	
64	 C74	42.515	37.120	45.008	C.2	1	UNK1	0.000	
65	 H08	38.413	31.263	27.607	 H	1	UNK1	0.000	
66	 H09	38.708	33.004	27.636	 H	1	UNK1	0.000	
67	 H10	38.507	32.510	29.955	 H	1	UNK1	0.000	
68	 H11	39.405	30.989	29.809	 H	1	UNK1	0.000	
69	 H13	43.584	31.896	44.466	 H	1	UNK1	0.000	
70	 H14	42.919	30.368	42.367	 H	1	UNK1	0.000	
71	 H47	43.794	37.857	41.731	 H	1	UNK1	0.000	
72	 H48	41.479	39.465	42.904	 H	1	UNK1	0.000	
73	 H51	43.222	39.549	43.308	 H	1	UNK1	0.000	
74	 H52	41.499	35.275	45.556	 H	1	UNK1	0.000	
75	 H53	42.916	37.632	45.868	 H	1	UNK1	0.000	
76	 H61	44.096	33.507	44.024	 H	1	UNK1	0.000	
77	 H01	44.250	30.107	28.911	 H	1	UNK1	0.000	
78	 H02	44.193	31.855	28.852	 H	1	UNK1	0.000	
79	 H03	44.705	30.447	31.044	 H	1	UNK1	0.000	
80	 H04	42.979	30.314	31.208	 H	1	UNK1	0.000	
81	 H05	41.659	30.205	29.385	 H	1	UNK1	0.000	
82	 H06	42.483	29.139	27.363	 H	1	UNK1	0.000	
83	 H07	40.496	33.815	29.365	 H	1	UNK1	0.000	
84	 H12	40.650	32.580	26.503	 H	1	UNK1	0.000	
85	 H15	42.240	32.932	28.108	 H	1	UNK1	0.000	
86	 H16	39.517	33.986	31.462	 H	1	UNK1	0.000	
87	 H17	39.557	32.515	32.404	 H	1	UNK1	0.000	
88	 H18	41.273	33.470	33.877	 H	1	UNK1	0.000	
89	 H19	39.903	34.546	33.750	 H	1	UNK1	0.000	
90	 H20	41.316	31.661	31.349	 H	1	UNK1	0.000	
91	 H21	42.958	33.565	30.074	 H	1	UNK1	0.000	
92	 H22	44.757	32.778	31.188	 H	1	UNK1	0.000	
93	 H23	42.969	30.698	26.665	 H	1	UNK1	0.000	
94	 H24	40.743	30.365	25.764	 H	1	UNK1	0.000	
95	 H25	40.150	29.722	27.301	 H	1	UNK1	0.000	
96	 H26	43.182	31.805	37.821	 H	1	UNK1	0.000	
97	 H27	43.175	33.638	37.329	 H	1	UNK1	0.000	
98	 H28	44.396	30.596	37.885	 H	1	UNK1	0.000	
99	 H29	45.209	30.839	35.856	 H	1	UNK1	0.000	
100	 H30	43.531	31.248	35.629	 H	1	UNK1	0.000	
101	 H31	44.065	31.016	33.222	 H	1	UNK1	0.000	
102	 H32	42.894	32.263	33.479	 H	1	UNK1	0.000	
103	 H33	45.946	33.033	35.615	 H	1	UNK1	0.000	
104	 H34	45.927	32.405	33.404	 H	1	UNK1	0.000	
105	 H35	41.601	37.103	33.756	 H	1	UNK1	0.000	
106	 H36	42.084	35.742	34.718	 H	1	UNK1	0.000	
107	 H37	45.535	36.961	33.887	 H	1	UNK1	0.000	
108	 H38	46.029	35.108	35.066	 H	1	UNK1	0.000	
109	 H39	43.626	37.363	32.685	 H	1	UNK1	0.000	
110	 H40	40.965	35.856	32.000	 H	1	UNK1	0.000	
111	 H41	43.933	38.461	35.154	 H	1	UNK1	0.000	
112	 H42	42.698	35.409	30.905	 H	1	UNK1	0.000	
113	 H43	44.700	35.620	31.630	 H	1	UNK1	0.000	
114	 H44	46.055	34.561	32.896	 H	1	UNK1	0.000	
115	 H45	43.135	33.962	34.898	 H	1	UNK1	0.000	
116	 H46	45.518	38.051	35.750	 H	1	UNK1	0.000	
117	 H49	42.886	35.133	36.770	 H	1	UNK1	0.000	
118	 H50	42.977	36.865	36.722	 H	1	UNK1	0.000	
119	 H55	44.569	29.892	42.033	 H	1	UNK1	0.000	
120	 H56	43.699	30.081	39.856	 H	1	UNK1	0.000	
121	 H57	42.743	31.528	40.232	 H	1	UNK1	0.000	
122	 H58	46.108	32.108	38.424	 H	1	UNK1	0.000	
123	 H59	45.772	31.270	40.302	 H	1	UNK1	0.000	
124	 H62	42.280	33.721	40.449	 H	1	UNK1	0.000	
125	 H63	45.850	34.781	36.898	 H	1	UNK1	0.000	
126	 H64	46.407	34.070	38.744	 H	1	UNK1	0.000	
127	 H65	44.952	36.989	39.960	 H	1	UNK1	0.000	
128	 H66	45.928	35.151	40.355	 H	1	UNK1	0.000	
129	 H67	45.895	36.772	37.900	 H	1	UNK1	0.000	
130	 H68	44.543	34.896	42.012	 H	1	UNK1	0.000	
131	 H69	43.914	40.176	36.746	 H	1	UNK1	0.000	
132	 H70	40.847	34.159	42.268	 H	1	UNK1	0.000	
133	 H71	41.746	32.088	42.630	 H	1	UNK1	0.000	
134	 H72	41.563	32.871	44.167	 H	1	UNK1	0.000	
135	 H74	45.375	31.677	43.028	 H	1	UNK1	0.000	
136	 H75	45.931	33.128	41.542	 H	1	UNK1	0.000	
137	 H78	42.755	40.949	40.813	 H	1	UNK1	0.000	
138	 H79	43.330	41.751	38.549	 H	1	UNK1	0.000	
@<TRIPOS>BOND
1 1 2 1
2 1 3 1
3 1 77 1
4 1 78 1
5 2 13 1
6 2 79 1
7 2 80 1
8 3 8 1
9 3 29 1
10 3 81 1
11 4 7 1
12 4 8 1
13 4 11 1
14 4 83 1
15 5 6 1
16 5 7 1
17 5 65 1
18 5 66 1
19 6 8 1
20 6 14 1
21 6 84 1
22 7 67 1
23 7 68 1
24 8 85 1
25 9 10 1
26 9 11 1
27 9 86 1
28 9 87 1
29 10 23 1
30 10 88 1
31 10 89 1
32 11 12 1
33 11 90 1
34 12 13 1
35 12 25 1
36 12 91 1
37 13 16 1
38 13 92 1
39 14 29 1
40 14 94 1
41 14 95 1
42 15 17 1
43 15 32 1
44 15 99 1
45 15 100 1
46 16 18 1
47 16 101 1
48 16 102 1
49 17 18 1
50 17 28 1
51 17 103 1
52 18 27 1
53 18 104 1
54 19 22 1
55 19 23 1
56 19 105 1
57 19 106 1
58 20 21 1
59 20 22 1
60 20 24 1
61 20 107 1
62 21 27 1
63 21 28 1
64 21 108 1
65 22 26 1
66 22 109 1
67 23 25 1
68 23 110 1
69 24 31 1
70 24 111 1
71 24 116 1
72 25 26 1
73 25 112 1
74 26 27 1
75 26 113 1
76 27 114 1
77 28 30 1
78 28 115 1
79 29 82 1
80 29 93 1
81 30 38 1
82 30 97 1
83 30 117 1
84 31 46 1
85 31 47 1
86 31 118 1
87 32 34 1
88 32 96 1
89 32 98 1
90 33 120 1
91 33 121 1
92 34 35 1
93 34 41 1
94 34 122 1
95 33 35 1
96 35 55 1
97 35 123 1
98 33 36 1
99 36 54 1
100 36 70 1
101 36 119 1
102 37 45 1
103 37 49 1
104 37 51 1
105 37 124 1
106 38 41 1
107 38 46 1
108 38 125 1
109 39 40 1
110 39 47 ar
111 39 57 ar
112 40 42 1
113 40 45 1
114 41 44 1
115 41 126 1
116 42 44 1
117 42 46 1
118 42 127 1
119 43 45 1
120 43 48 1
121 43 58 1
122 44 49 1
123 44 128 1
124 46 129 1
125 47 50 ar
126 48 56 ar
127 48 62 ar
128 49 55 1
129 49 130 1
130 50 60 ar
131 50 131 1
132 51 52 1
133 51 56 1
134 51 132 1
135 52 53 1
136 52 133 1
137 52 134 1
138 53 54 1
139 53 69 1
140 53 76 1
141 54 55 1
142 54 135 1
143 55 136 1
144 56 63 ar
145 57 58 1
146 57 59 ar
147 58 61 1
148 58 71 1
149 59 60 ar
150 59 137 1
151 60 138 1
152 61 62 1
153 61 72 1
154 61 73 1
155 62 64 ar
156 63 64 ar
157 63 74 1
158 64 75 1
@<TRIPOS>SUBSTRUCTURE
1	UNK1	1	GROUP	1 ****	UNK
