# created with PyMOL 2.5.5
@<TRIPOS>MOLECULE
full_87
227 253 1               
SMALL
USER_CHARGES
@<TRIPOS>ATOM
1	 C01	42.023	36.658	39.913	C.3	1	UNK1	0.000	
2	 C02	40.472	36.300	42.965	C.3	1	UNK1	0.000	
3	 C03	40.688	36.310	39.293	C.3	1	UNK1	0.000	
4	 C04	39.890	34.963	42.676	C.3	1	UNK1	0.000	
5	 C05	40.041	34.447	41.259	C.3	1	UNK1	0.000	
6	 C06	39.769	35.311	40.024	C.3	1	UNK1	0.000	
7	 C07	40.862	35.826	37.804	C.3	1	UNK1	0.000	
8	 C08	43.355	37.736	37.988	C.3	1	UNK1	0.000	
9	 C09	42.491	37.865	36.712	C.3	1	UNK1	0.000	
10	 C10	41.106	36.996	36.724	C.3	1	UNK1	0.000	
11	 C11	44.451	38.802	38.178	C.3	1	UNK1	0.000	
12	 C12	44.784	38.835	39.669	C.3	1	UNK1	0.000	
13	 C13	44.456	39.025	43.461	C.3	1	UNK1	0.000	
14	 C14	45.461	39.913	42.654	C.3	1	UNK1	0.000	
15	 C15	45.398	40.217	39.982	C.3	1	UNK1	0.000	
16	 C16	45.015	40.789	41.416	C.3	1	UNK1	0.000	
17	 C17	41.320	37.890	44.440	C.3	1	UNK1	0.000	
18	 C18	41.859	38.448	45.735	C.3	1	UNK1	0.000	
19	 C19	44.134	39.759	44.794	C.3	1	UNK1	0.000	
20	 C20	42.683	39.758	45.349	C.3	1	UNK1	0.000	
21	 C21	40.467	36.637	44.458	C.3	1	UNK1	0.000	
22	 C22	45.948	40.928	43.723	C.3	1	UNK1	0.000	
23	 C23	44.673	41.225	44.549	C.3	1	UNK1	0.000	
24	 C24	44.773	42.028	45.899	C.3	1	UNK1	0.000	
25	 C25	39.697	33.868	36.517	C.3	1	UNK1	0.000	
26	 C26	43.430	42.746	46.199	C.3	1	UNK1	0.000	
27	 C27	41.512	39.047	48.143	C.3	1	UNK1	0.000	
28	 C28	40.770	38.886	46.772	C.3	1	UNK1	0.000	
29	 C29	39.366	38.229	47.084	C.3	1	UNK1	0.000	
30	 C30	39.017	36.751	44.853	C.3	1	UNK1	0.000	
31	 C31	38.315	35.359	44.556	C.3	1	UNK1	0.000	
32	 C32	38.756	36.976	46.333	C.3	1	UNK1	0.000	
33	 C33	38.394	34.996	43.021	C.3	1	UNK1	0.000	
34	 C34	38.921	33.355	41.181	C.3	1	UNK1	0.000	
35	 C35	37.978	33.620	42.444	C.3	1	UNK1	0.000	
36	 C36	36.961	35.579	45.226	C.3	1	UNK1	0.000	
37	 C37	37.214	36.576	46.446	C.3	1	UNK1	0.000	
38	 C38	36.479	33.438	42.176	C.3	1	UNK1	0.000	
39	 C39	35.488	33.711	43.330	C.3	1	UNK1	0.000	
40	 C40	36.266	34.295	45.722	C.3	1	UNK1	0.000	
41	 C41	35.989	33.171	44.701	C.3	1	UNK1	0.000	
42	 C42	45.667	42.168	41.653	C.3	1	UNK1	0.000	
43	 C43	42.533	37.930	39.229	C.3	1	UNK1	0.000	
44	 C44	46.558	42.031	42.875	C.3	1	UNK1	0.000	
45	 C45	39.575	34.895	37.643	C.3	1	UNK1	0.000	
46	 C46	39.549	34.190	39.012	C.3	1	UNK1	0.000	
47	 C47	41.994	37.219	41.304	C.3	1	UNK1	0.000	
48	 C48	44.969	41.098	38.724	C.3	1	UNK1	0.000	
49	 C49	43.937	40.222	37.973	C.3	1	UNK1	0.000	
50	 C50	38.345	39.390	47.407	C.3	1	UNK1	0.000	
51	 C51	38.378	33.425	39.701	C.3	1	UNK1	0.000	
52	 C52	41.902	36.434	42.560	C.3	1	UNK1	0.000	
53	 C53	38.879	40.796	47.846	C.3	1	UNK1	0.000	
54	 C54	40.738	39.674	49.296	C.3	1	UNK1	0.000	
55	 C55	39.890	40.919	49.012	C.3	1	UNK1	0.000	
56	 C56	46.173	41.478	37.868	C.3	1	UNK1	0.000	
57	 C57	40.938	36.412	35.310	C.3	1	UNK1	0.000	
58	 C58	37.298	38.896	48.416	C.3	1	UNK1	0.000	
59	 C59	45.913	43.045	46.002	C.3	1	UNK1	0.000	
60	 C60	42.978	42.554	47.667	C.3	1	UNK1	0.000	
61	 C61	43.404	38.674	40.255	C.3	1	UNK1	0.000	
62	 C62	43.365	37.838	41.474	C.3	1	UNK1	0.000	
63	 C63	43.737	43.514	48.590	C.3	1	UNK1	0.000	
64	 C64	45.271	43.366	48.539	C.3	1	UNK1	0.000	
65	 C65	45.942	43.950	47.272	C.3	1	UNK1	0.000	
66	 C66	43.195	38.536	42.791	C.3	1	UNK1	0.000	
67	 C67	42.507	37.411	43.592	C.3	1	UNK1	0.000	
68	 C68	40.726	42.265	49.046	C.3	1	UNK1	0.000	
69	 C69	41.434	42.709	47.732	C.3	1	UNK1	0.000	
70	 C70	47.398	44.443	47.520	C.3	1	UNK1	0.000	
71	 C71	47.449	45.801	48.241	C.3	1	UNK1	0.000	
72	 C72	48.843	45.891	48.862	C.3	1	UNK1	0.000	
73	 C73	49.487	44.521	48.671	C.3	1	UNK1	0.000	
74	 C74	48.315	43.574	48.402	C.3	1	UNK1	0.000	
75	 C75	43.416	40.394	36.565	C.3	1	UNK1	0.000	
76	 C76	44.344	40.155	35.374	C.3	1	UNK1	0.000	
77	 C77	43.419	39.718	34.232	C.3	1	UNK1	0.000	
78	 C78	42.013	39.670	34.826	C.3	1	UNK1	0.000	
79	 C79	42.228	39.397	36.318	C.3	1	UNK1	0.000	
80	 C80	38.075	32.066	39.012	C.3	1	UNK1	0.000	
81	 C81	37.588	30.901	39.896	C.3	1	UNK1	0.000	
82	 C82	36.116	30.657	39.565	C.3	1	UNK1	0.000	
83	 C83	35.684	31.849	38.734	C.3	1	UNK1	0.000	
84	 C84	36.947	32.217	37.975	C.3	1	UNK1	0.000	
85	 C85	36.153	37.720	46.400	C.3	1	UNK1	0.000	
86	 C86	34.678	37.292	46.231	C.3	1	UNK1	0.000	
87	 C87	34.186	36.926	47.625	C.3	1	UNK1	0.000	
88	 C88	35.064	37.715	48.588	C.3	1	UNK1	0.000	
89	 C89	36.012	38.529	47.702	C.3	1	UNK1	0.000	
90	 C90	35.076	32.125	45.361	C.3	1	UNK1	0.000	
91	 C91	48.774	42.266	47.777	C.3	1	UNK1	0.000	
92	 C92	39.797	43.410	49.495	C.3	1	UNK1	0.000	
93	 C93	34.097	33.215	42.903	C.3	1	UNK1	0.000	
94	1H00	48.765	46.138	49.927	 H	1	UNK1	0.000	
95	1H01	50.168	44.552	47.811	 H	1	UNK1	0.000	
96	 H01	42.901	39.628	40.445	 H	1	UNK1	0.000	
97	1H02	50.071	44.220	49.546	 H	1	UNK1	0.000	
98	 H02	43.227	36.847	44.202	 H	1	UNK1	0.000	
99	1H03	47.835	43.350	49.362	 H	1	UNK1	0.000	
100	 H03	40.760	38.679	43.916	 H	1	UNK1	0.000	
101	1H04	49.535	41.787	48.403	 H	1	UNK1	0.000	
102	 H04	42.463	35.493	42.534	 H	1	UNK1	0.000	
103	1H05	45.087	39.373	35.560	 H	1	UNK1	0.000	
104	 H05	38.522	37.546	44.276	 H	1	UNK1	0.000	
105	1H06	44.891	41.065	35.107	 H	1	UNK1	0.000	
106	 H06	45.462	38.019	39.944	 H	1	UNK1	0.000	
107	1H07	43.468	40.409	33.384	 H	1	UNK1	0.000	
108	 H07	43.937	40.967	41.467	 H	1	UNK1	0.000	
109	1H08	43.717	38.728	33.867	 H	1	UNK1	0.000	
110	 H08	42.732	35.825	39.839	 H	1	UNK1	0.000	
111	1H09	41.550	40.660	34.709	 H	1	UNK1	0.000	
112	 H09	41.686	38.600	39.012	 H	1	UNK1	0.000	
113	1H10	41.353	38.979	34.308	 H	1	UNK1	0.000	
114	 H10	38.990	31.733	38.507	 H	1	UNK1	0.000	
115	1H11	34.491	36.500	45.505	 H	1	UNK1	0.000	
116	 H11	41.228	38.017	41.318	 H	1	UNK1	0.000	
117	1H12	34.103	38.158	45.875	 H	1	UNK1	0.000	
118	 H12	40.964	35.849	45.043	 H	1	UNK1	0.000	
119	1H13	37.732	31.056	40.965	 H	1	UNK1	0.000	
120	 H13	38.824	35.852	40.193	 H	1	UNK1	0.000	
121	1H14	38.157	29.994	39.653	 H	1	UNK1	0.000	
122	 H14	43.123	37.447	35.915	 H	1	UNK1	0.000	
123	1H15	36.017	29.735	38.980	 H	1	UNK1	0.000	
124	 H15	40.087	37.231	39.241	 H	1	UNK1	0.000	
125	1H16	35.503	30.541	40.464	 H	1	UNK1	0.000	
126	 H16	36.402	38.374	45.555	 H	1	UNK1	0.000	
127	1H17	34.853	31.608	38.065	 H	1	UNK1	0.000	
128	 H17	40.379	34.221	43.330	 H	1	UNK1	0.000	
129	1H18	35.370	32.675	39.381	 H	1	UNK1	0.000	
130	 H18	38.848	34.572	45.110	 H	1	UNK1	0.000	
131	1H19	36.876	33.218	37.541	 H	1	UNK1	0.000	
132	 H19	41.029	33.976	41.153	 H	1	UNK1	0.000	
133	1H20	37.102	31.505	37.155	 H	1	UNK1	0.000	
134	 H20	37.488	34.063	39.668	 H	1	UNK1	0.000	
135	1H21	33.126	37.170	47.748	 H	1	UNK1	0.000	
136	 H21	41.744	35.171	37.754	 H	1	UNK1	0.000	
137	1H22	34.298	35.853	47.814	 H	1	UNK1	0.000	
138	 H22	41.354	39.743	36.883	 H	1	UNK1	0.000	
139	1H23	34.467	38.369	49.233	 H	1	UNK1	0.000	
140	 H23	43.827	36.745	38.000	 H	1	UNK1	0.000	
141	1H24	35.608	37.022	49.240	 H	1	UNK1	0.000	
142	 H24	40.291	37.716	36.873	 H	1	UNK1	0.000	
143	1H25	49.208	42.425	46.785	 H	1	UNK1	0.000	
144	 H25	41.465	35.457	35.217	 H	1	UNK1	0.000	
145	1H26	47.940	41.565	47.681	 H	1	UNK1	0.000	
146	 H26	46.904	42.039	38.458	 H	1	UNK1	0.000	
147	1H27	40.366	44.336	49.636	 H	1	UNK1	0.000	
148	 H27	45.339	38.580	37.578	 H	1	UNK1	0.000	
149	1H28	39.317	43.176	50.451	 H	1	UNK1	0.000	
150	 H28	45.037	38.133	43.744	 H	1	UNK1	0.000	
151	1H29	42.650	42.381	45.525	 H	1	UNK1	0.000	
152	 H29	47.882	44.589	46.543	 H	1	UNK1	0.000	
153	1H30	43.491	43.816	45.959	 H	1	UNK1	0.000	
154	 H30	47.557	41.714	42.547	 H	1	UNK1	0.000	
155	1H31	42.753	40.331	46.263	 H	1	UNK1	0.000	
156	 H31	46.309	39.291	42.336	 H	1	UNK1	0.000	
157	1H32	42.058	40.368	44.682	 H	1	UNK1	0.000	
158	 H32	43.966	41.752	43.894	 H	1	UNK1	0.000	
159	1H33	42.447	39.596	48.039	 H	1	UNK1	0.000	
160	 H33	44.485	42.023	39.059	 H	1	UNK1	0.000	
161	1H34	41.830	38.046	48.471	 H	1	UNK1	0.000	
162	 H34	46.491	40.111	39.963	 H	1	UNK1	0.000	
163	1H35	33.338	33.487	43.643	 H	1	UNK1	0.000	
164	 H36	39.852	37.046	42.443	 H	1	UNK1	0.000	
165	 H37	39.464	34.297	35.542	 H	1	UNK1	0.000	
166	 H38	42.535	37.727	46.210	 H	1	UNK1	0.000	
167	 H39	44.763	39.296	45.569	 H	1	UNK1	0.000	
168	 H40	39.000	33.041	36.633	 H	1	UNK1	0.000	
169	 H41	46.686	42.984	43.386	 H	1	UNK1	0.000	
170	 H42	46.710	40.478	44.372	 H	1	UNK1	0.000	
171	 H43	44.967	41.281	46.679	 H	1	UNK1	0.000	
172	 H44	40.703	33.438	36.474	 H	1	UNK1	0.000	
173	 H45	40.083	38.911	49.735	 H	1	UNK1	0.000	
174	 H46	43.218	41.540	47.995	 H	1	UNK1	0.000	
175	 H47	44.160	37.078	41.503	 H	1	UNK1	0.000	
176	 H48	42.514	39.388	42.662	 H	1	UNK1	0.000	
177	 H49	37.859	39.625	46.452	 H	1	UNK1	0.000	
178	 H50	40.528	39.881	46.398	 H	1	UNK1	0.000	
179	 H51	39.533	37.752	48.061	 H	1	UNK1	0.000	
180	 H52	37.095	36.034	47.393	 H	1	UNK1	0.000	
181	 H53	39.276	36.134	46.826	 H	1	UNK1	0.000	
182	 H54	37.883	35.784	42.451	 H	1	UNK1	0.000	
183	 H55	35.313	34.570	46.184	 H	1	UNK1	0.000	
184	 H56	36.335	36.102	44.498	 H	1	UNK1	0.000	
185	 H57	34.093	32.539	45.609	 H	1	UNK1	0.000	
186	 H58	38.295	32.857	43.166	 H	1	UNK1	0.000	
187	 H59	39.414	32.385	41.335	 H	1	UNK1	0.000	
188	 H60	40.421	33.512	39.013	 H	1	UNK1	0.000	
189	 H61	36.319	32.407	41.850	 H	1	UNK1	0.000	
190	 H62	36.179	34.079	41.340	 H	1	UNK1	0.000	
191	 H63	36.935	32.642	44.568	 H	1	UNK1	0.000	
192	 H64	34.077	32.130	42.756	 H	1	UNK1	0.000	
193	 H65	36.867	33.865	46.536	 H	1	UNK1	0.000	
194	 H66	35.372	34.796	43.380	 H	1	UNK1	0.000	
195	 H67	44.883	42.910	41.851	 H	1	UNK1	0.000	
196	 H68	46.241	42.534	40.797	 H	1	UNK1	0.000	
197	 H69	33.801	33.677	41.955	 H	1	UNK1	0.000	
198	 H70	38.675	35.506	37.510	 H	1	UNK1	0.000	
199	 H71	43.026	41.419	36.479	 H	1	UNK1	0.000	
200	 H72	43.024	40.401	38.556	 H	1	UNK1	0.000	
201	 H73	41.015	42.152	46.894	 H	1	UNK1	0.000	
202	 H74	35.500	39.469	47.446	 H	1	UNK1	0.000	
203	 H75	39.255	40.972	49.911	 H	1	UNK1	0.000	
204	 H76	38.007	41.415	48.106	 H	1	UNK1	0.000	
205	 H77	39.250	41.296	46.948	 H	1	UNK1	0.000	
206	 H78	41.451	39.897	50.102	 H	1	UNK1	0.000	
207	 H79	45.867	42.117	37.034	 H	1	UNK1	0.000	
208	 H80	46.679	40.598	37.459	 H	1	UNK1	0.000	
209	 H81	41.345	37.041	34.521	 H	1	UNK1	0.000	
210	 H82	39.879	36.281	35.075	 H	1	UNK1	0.000	
211	 H83	37.673	38.046	48.997	 H	1	UNK1	0.000	
212	 H84	37.063	39.667	49.161	 H	1	UNK1	0.000	
213	 H85	45.369	44.850	47.002	 H	1	UNK1	0.000	
214	 H86	45.857	43.728	45.145	 H	1	UNK1	0.000	
215	 H87	41.205	43.762	47.519	 H	1	UNK1	0.000	
216	 H88	43.422	43.331	49.624	 H	1	UNK1	0.000	
217	 H89	43.460	44.552	48.367	 H	1	UNK1	0.000	
218	 H90	46.859	42.506	45.899	 H	1	UNK1	0.000	
219	 H91	45.559	42.318	48.683	 H	1	UNK1	0.000	
220	 H92	45.642	43.905	49.418	 H	1	UNK1	0.000	
221	 H93	41.480	42.164	49.836	 H	1	UNK1	0.000	
222	 H94	39.013	43.603	48.755	 H	1	UNK1	0.000	
223	 H95	35.522	31.763	46.294	 H	1	UNK1	0.000	
224	 H96	34.941	31.254	44.712	 H	1	UNK1	0.000	
225	 H97	46.693	45.870	49.032	 H	1	UNK1	0.000	
226	 H98	47.266	46.628	47.547	 H	1	UNK1	0.000	
227	 H99	49.445	46.674	48.388	 H	1	UNK1	0.000	
@<TRIPOS>BOND
1 1 3 1
2 1 43 1
3 1 47 1
4 1 110 1
5 2 4 1
6 2 21 1
7 2 52 1
8 2 164 1
9 3 6 1
10 3 7 1
11 3 124 1
12 4 5 1
13 4 33 1
14 4 128 1
15 5 6 1
16 5 34 1
17 5 132 1
18 6 46 1
19 6 120 1
20 7 10 1
21 7 45 1
22 7 136 1
23 8 9 1
24 8 11 1
25 8 43 1
26 8 140 1
27 9 10 1
28 9 122 1
29 10 57 1
30 10 142 1
31 11 12 1
32 11 49 1
33 11 148 1
34 12 15 1
35 12 61 1
36 12 106 1
37 13 14 1
38 13 19 1
39 13 66 1
40 13 150 1
41 14 16 1
42 14 22 1
43 14 156 1
44 15 16 1
45 15 48 1
46 15 162 1
47 16 42 1
48 16 108 1
49 17 18 1
50 17 21 1
51 17 67 1
52 17 100 1
53 18 20 1
54 18 28 1
55 18 166 1
56 19 20 1
57 19 23 1
58 19 167 1
59 20 155 1
60 20 157 1
61 21 30 1
62 21 118 1
63 22 23 1
64 22 44 1
65 22 170 1
66 23 24 1
67 23 158 1
68 24 26 1
69 24 59 1
70 24 171 1
71 25 165 1
72 25 168 1
73 25 172 1
74 26 60 1
75 26 151 1
76 26 153 1
77 27 28 1
78 27 54 1
79 27 159 1
80 27 161 1
81 28 29 1
82 28 178 1
83 29 32 1
84 29 50 1
85 29 179 1
86 30 31 1
87 30 32 1
88 30 104 1
89 31 33 1
90 31 36 1
91 31 130 1
92 32 37 1
93 32 181 1
94 33 35 1
95 33 182 1
96 34 35 1
97 34 51 1
98 34 187 1
99 35 38 1
100 35 186 1
101 36 37 1
102 36 40 1
103 36 184 1
104 37 180 1
105 38 39 1
106 38 189 1
107 38 190 1
108 39 41 1
109 39 93 1
110 39 194 1
111 40 41 1
112 40 183 1
113 40 193 1
114 41 90 1
115 41 191 1
116 42 44 1
117 42 195 1
118 42 196 1
119 43 61 1
120 43 112 1
121 44 154 1
122 44 169 1
123 25 45 1
124 45 46 1
125 45 198 1
126 46 51 1
127 46 188 1
128 47 52 1
129 47 62 1
130 47 116 1
131 48 49 1
132 48 56 1
133 48 160 1
134 49 200 1
135 50 53 1
136 50 58 1
137 50 177 1
138 51 134 1
139 52 67 1
140 52 102 1
141 53 55 1
142 53 204 1
143 53 205 1
144 54 55 1
145 54 173 1
146 54 206 1
147 55 68 1
148 55 203 1
149 56 146 1
150 56 207 1
151 56 208 1
152 57 144 1
153 57 209 1
154 57 210 1
155 58 211 1
156 58 212 1
157 59 65 1
158 59 214 1
159 59 218 1
160 60 63 1
161 60 69 1
162 60 174 1
163 61 62 1
164 61 96 1
165 62 66 1
166 62 175 1
167 63 64 1
168 63 216 1
169 63 217 1
170 64 65 1
171 64 219 1
172 64 220 1
173 65 213 1
174 66 67 1
175 66 176 1
176 67 98 1
177 68 69 1
178 68 92 1
179 68 221 1
180 69 201 1
181 69 215 1
182 65 70 1
183 70 71 1
184 70 74 1
185 70 152 1
186 71 72 1
187 71 225 1
188 71 226 1
189 72 73 1
190 72 94 1
191 72 227 1
192 73 74 1
193 73 95 1
194 73 97 1
195 74 91 1
196 74 99 1
197 49 75 1
198 75 76 1
199 75 79 1
200 75 199 1
201 76 77 1
202 76 103 1
203 76 105 1
204 77 78 1
205 77 107 1
206 77 109 1
207 78 79 1
208 78 111 1
209 78 113 1
210 9 79 1
211 79 138 1
212 51 80 1
213 80 81 1
214 80 84 1
215 80 114 1
216 81 82 1
217 81 119 1
218 81 121 1
219 82 83 1
220 82 123 1
221 82 125 1
222 83 84 1
223 83 127 1
224 83 129 1
225 84 131 1
226 84 133 1
227 37 85 1
228 85 86 1
229 85 89 1
230 85 126 1
231 86 87 1
232 86 115 1
233 86 117 1
234 87 88 1
235 87 135 1
236 87 137 1
237 88 89 1
238 88 139 1
239 88 141 1
240 58 89 1
241 89 202 1
242 90 185 1
243 90 223 1
244 90 224 1
245 91 101 1
246 91 143 1
247 91 145 1
248 92 147 1
249 92 149 1
250 92 222 1
251 93 163 1
252 93 192 1
253 93 197 1
@<TRIPOS>SUBSTRUCTURE
1	UNK1	1	GROUP	1 ****	UNK
