# created with PyMOL 2.5.5
@<TRIPOS>MOLECULE
full_87
150 172 1               
SMALL
USER_CHARGES
@<TRIPOS>ATOM
1	 C01	42.255	30.492	29.031	C.3	1	UNK1	0.000	
2	 C02	42.298	30.459	30.566	C.3	1	UNK1	0.000	
3	 C03	40.904	30.879	28.400	C.3	1	UNK1	0.000	
4	 C04	40.217	33.326	29.152	C.3	1	UNK1	0.000	
5	 C05	38.544	33.414	27.463	C.3	1	UNK1	0.000	
6	 C07	39.630	32.494	26.923	C.3	1	UNK1	0.000	
7	 C08	38.697	33.334	28.969	C.3	1	UNK1	0.000	
8	 C09	40.710	32.369	28.029	C.3	1	UNK1	0.000	
9	 C11	40.158	33.918	31.667	C.3	1	UNK1	0.000	
10	 C12	40.673	32.976	30.576	C.3	1	UNK1	0.000	
11	 C13	42.221	33.025	30.683	C.3	1	UNK1	0.000	
12	 C14	42.831	31.745	31.247	C.3	1	UNK1	0.000	
13	 C17	43.337	30.867	35.785	C.3	1	UNK1	0.000	
14	 C18	43.705	31.427	37.181	C.3	1	UNK1	0.000	
15	 C19	42.697	31.635	32.774	C.3	1	UNK1	0.000	
16	 C20	44.079	31.884	34.935	C.3	1	UNK1	0.000	
17	 C21	43.976	32.115	33.432	C.3	1	UNK1	0.000	
18	 C22	41.511	35.299	33.329	C.3	1	UNK1	0.000	
19	 C23	43.744	35.626	34.683	C.3	1	UNK1	0.000	
20	 C24	44.328	34.214	34.739	C.3	1	UNK1	0.000	
21	 C25	42.990	35.681	33.339	C.3	1	UNK1	0.000	
22	 C26	41.243	34.954	31.875	C.3	1	UNK1	0.000	
23	 C27	42.895	36.069	35.885	C.3	1	UNK1	0.000	
24	 C28	42.556	34.369	31.337	C.3	1	UNK1	0.000	
25	 C29	43.641	34.645	32.391	C.3	1	UNK1	0.000	
26	 C30	44.344	33.621	33.289	C.3	1	UNK1	0.000	
27	 C31	43.555	33.180	35.525	C.3	1	UNK1	0.000	
28	 C32	42.461	37.575	35.813	C.3	1	UNK1	0.000	
29	 C33	43.675	32.967	37.037	C.3	1	UNK1	0.000	
30	 C34	43.401	35.857	37.344	C.3	1	UNK1	0.000	
31	 C35	42.840	30.997	38.361	C.3	1	UNK1	0.000	
32	 C36	43.153	31.797	39.656	C.3	1	UNK1	0.000	
33	 C37	44.206	31.406	42.441	C.3	1	UNK1	0.000	
34	 C38	44.666	31.976	39.886	C.3	1	UNK1	0.000	
35	 C39	45.188	31.793	41.337	C.3	1	UNK1	0.000	
36	 C40	45.102	31.420	43.677	C.3	1	UNK1	0.000	
37	 C41	44.309	34.914	41.988	C.3	1	UNK1	0.000	
38	 C42	44.857	33.665	37.719	C.3	1	UNK1	0.000	
39	 C43	43.065	37.090	39.410	C.3	1	UNK1	0.000	
40	 C44	44.430	36.670	40.011	C.3	1	UNK1	0.000	
41	 C45	45.342	33.152	39.120	C.3	1	UNK1	0.000	
42	 C46	45.246	35.638	39.196	C.3	1	UNK1	0.000	
43	 C47	43.026	37.020	41.958	C.3	1	UNK1	0.000	
44	 C48	45.766	34.389	39.932	C.3	1	UNK1	0.000	
45	 C49	44.305	36.389	41.502	C.3	1	UNK1	0.000	
46	 C50	44.748	35.220	37.765	C.3	1	UNK1	0.000	
47	 C51	43.293	37.247	37.941	C.3	1	UNK1	0.000	
48	 C52	43.022	37.089	43.409	C.3	1	UNK1	0.000	
49	 C53	45.637	34.321	41.479	C.3	1	UNK1	0.000	
50	 C54	42.131	37.917	37.263	C.3	1	UNK1	0.000	
51	 C55	44.053	34.834	43.583	C.3	1	UNK1	0.000	
52	 C56	45.364	35.031	44.335	C.3	1	UNK1	0.000	
53	 C57	46.123	33.704	44.578	C.3	1	UNK1	0.000	
54	 C58	46.087	32.600	43.482	C.3	1	UNK1	0.000	
55	 C59	46.030	32.926	41.959	C.3	1	UNK1	0.000	
56	 C60	42.880	35.755	44.045	C.3	1	UNK1	0.000	
57	 C61	42.337	38.335	40.065	C.3	1	UNK1	0.000	
58	 C62	42.795	38.464	41.537	C.3	1	UNK1	0.000	
59	 C64	42.507	39.591	39.192	C.3	1	UNK1	0.000	
60	 C65	42.068	39.381	37.709	C.3	1	UNK1	0.000	
61	 C66	41.858	38.995	42.702	C.3	1	UNK1	0.000	
62	 C67	41.736	37.805	43.690	C.3	1	UNK1	0.000	
63	 C69	44.380	31.367	45.009	C.3	1	UNK1	0.000	
64	 C71	45.367	31.719	46.108	C.3	1	UNK1	0.000	
65	 C72	45.781	33.181	46.004	C.3	1	UNK1	0.000	
66	 C74	41.822	37.701	45.210	C.3	1	UNK1	0.000	
67	 C76	42.522	36.275	45.458	C.3	1	UNK1	0.000	
68	 H08	39.190	31.523	26.669	 H	1	UNK1	0.000	
69	 H09	38.720	34.441	27.120	 H	1	UNK1	0.000	
70	 H10	37.545	33.117	27.130	 H	1	UNK1	0.000	
71	 H11	40.264	31.991	30.816	 H	1	UNK1	0.000	
72	 H12	39.202	34.391	31.427	 H	1	UNK1	0.000	
73	 H13	39.983	33.342	32.583	 H	1	UNK1	0.000	
74	 H14	45.156	31.780	35.155	 H	1	UNK1	0.000	
75	 H15	42.255	30.884	35.615	 H	1	UNK1	0.000	
76	 H16	43.706	29.848	35.640	 H	1	UNK1	0.000	
77	 H17	41.834	35.592	45.966	 H	1	UNK1	0.000	
78	 H18	42.325	39.856	43.193	 H	1	UNK1	0.000	
79	 H19	40.880	39.306	42.323	 H	1	UNK1	0.000	
80	 H01	43.782	30.409	42.281	 H	1	UNK1	0.000	
81	 H02	43.382	32.119	42.522	 H	1	UNK1	0.000	
82	 H03	45.708	30.500	43.627	 H	1	UNK1	0.000	
83	 H04	41.599	37.729	35.158	 H	1	UNK1	0.000	
84	 H05	43.287	38.195	35.442	 H	1	UNK1	0.000	
85	 H06	44.914	31.539	47.089	 H	1	UNK1	0.000	
86	 H07	43.521	32.045	45.037	 H	1	UNK1	0.000	
87	 H78	46.252	31.074	46.046	 H	1	UNK1	0.000	
88	 H79	42.454	29.461	28.705	 H	1	UNK1	0.000	
89	 H80	44.967	33.774	46.441	 H	1	UNK1	0.000	
90	 H81	43.075	31.088	28.617	 H	1	UNK1	0.000	
91	 H82	46.644	33.349	46.662	 H	1	UNK1	0.000	
92	 H83	42.980	29.647	30.855	 H	1	UNK1	0.000	
93	 H85	41.322	30.164	30.970	 H	1	UNK1	0.000	
94	 H87	40.067	30.515	29.007	 H	1	UNK1	0.000	
95	 H89	40.855	30.307	27.462	 H	1	UNK1	0.000	
96	 H90	40.836	37.741	45.684	 H	1	UNK1	0.000	
97	 H91	40.581	34.336	28.910	 H	1	UNK1	0.000	
98	 H92	42.442	38.497	45.637	 H	1	UNK1	0.000	
99	H102	38.212	34.184	29.456	 H	1	UNK1	0.000	
100	H103	38.248	32.411	29.355	 H	1	UNK1	0.000	
101	H110	42.643	33.100	29.672	 H	1	UNK1	0.000	
102	H111	43.900	31.780	30.990	 H	1	UNK1	0.000	
103	H119	44.737	31.095	37.357	 H	1	UNK1	0.000	
104	H120	42.549	30.585	33.054	 H	1	UNK1	0.000	
105	H121	41.827	32.173	33.157	 H	1	UNK1	0.000	
106	H123	44.791	31.527	32.982	 H	1	UNK1	0.000	
107	H124	40.866	36.117	33.662	 H	1	UNK1	0.000	
108	H125	41.310	34.440	33.973	 H	1	UNK1	0.000	
109	H126	44.599	36.313	34.598	 H	1	UNK1	0.000	
110	H127	45.366	34.269	35.087	 H	1	UNK1	0.000	
111	H128	43.087	36.688	32.910	 H	1	UNK1	0.000	
112	H129	40.997	35.868	31.316	 H	1	UNK1	0.000	
113	H130	41.955	35.501	35.847	 H	1	UNK1	0.000	
114	H131	42.822	35.027	30.493	 H	1	UNK1	0.000	
115	H132	44.455	35.169	31.866	 H	1	UNK1	0.000	
116	H133	45.398	33.626	32.969	 H	1	UNK1	0.000	
117	H134	42.484	33.263	35.297	 H	1	UNK1	0.000	
118	H138	42.738	33.318	37.478	 H	1	UNK1	0.000	
119	H139	42.615	35.255	37.817	 H	1	UNK1	0.000	
120	H140	43.002	29.928	38.549	 H	1	UNK1	0.000	
121	H141	41.775	31.114	38.124	 H	1	UNK1	0.000	
122	H142	42.676	31.242	40.469	 H	1	UNK1	0.000	
123	H143	42.662	32.777	39.639	 H	1	UNK1	0.000	
124	H147	45.089	31.076	39.411	 H	1	UNK1	0.000	
125	H148	45.885	30.939	41.268	 H	1	UNK1	0.000	
126	H151	43.473	34.386	41.508	 H	1	UNK1	0.000	
127	H152	45.724	33.463	37.070	 H	1	UNK1	0.000	
128	H153	42.373	36.249	39.568	 H	1	UNK1	0.000	
129	H154	45.029	37.596	39.955	 H	1	UNK1	0.000	
130	H155	46.315	32.686	38.875	 H	1	UNK1	0.000	
131	H156	46.171	36.201	38.977	 H	1	UNK1	0.000	
132	H157	42.170	36.399	41.643	 H	1	UNK1	0.000	
133	H158	46.861	34.432	39.781	 H	1	UNK1	0.000	
134	H159	45.154	36.896	41.983	 H	1	UNK1	0.000	
135	H160	45.495	35.614	37.060	 H	1	UNK1	0.000	
136	H162	43.899	37.639	43.794	 H	1	UNK1	0.000	
137	H163	46.434	34.984	41.847	 H	1	UNK1	0.000	
138	H166	43.692	33.830	43.804	 H	1	UNK1	0.000	
139	H167	45.200	35.532	45.294	 H	1	UNK1	0.000	
140	H168	46.018	35.728	43.799	 H	1	UNK1	0.000	
141	H169	47.177	34.016	44.635	 H	1	UNK1	0.000	
142	H170	47.072	32.118	43.614	 H	1	UNK1	0.000	
143	H171	47.058	32.783	41.588	 H	1	UNK1	0.000	
144	H173	41.261	38.107	40.071	 H	1	UNK1	0.000	
145	H177	43.565	39.886	39.199	 H	1	UNK1	0.000	
146	H178	41.949	40.431	39.620	 H	1	UNK1	0.000	
147	H179	41.040	39.742	37.583	 H	1	UNK1	0.000	
148	H180	42.693	40.012	37.066	 H	1	UNK1	0.000	
149	H183	40.858	37.222	43.370	 H	1	UNK1	0.000	
150	H187	43.984	30.358	45.172	 H	1	UNK1	0.000	
@<TRIPOS>BOND
1 1 2 1
2 1 3 1
3 1 88 1
4 1 90 1
5 2 12 1
6 2 92 1
7 2 93 1
8 3 8 1
9 3 94 1
10 3 95 1
11 4 7 1
12 4 8 1
13 4 10 1
14 4 97 1
15 5 7 1
16 5 69 1
17 5 70 1
18 5 6 1
19 6 8 1
20 6 68 1
21 7 99 1
22 7 100 1
23 9 22 1
24 9 72 1
25 9 73 1
26 9 10 1
27 10 11 1
28 10 71 1
29 11 12 1
30 11 24 1
31 11 101 1
32 12 15 1
33 12 102 1
34 13 14 1
35 13 75 1
36 13 76 1
37 14 29 1
38 14 31 1
39 14 103 1
40 15 17 1
41 15 104 1
42 15 105 1
43 13 16 1
44 16 17 1
45 16 27 1
46 16 74 1
47 17 26 1
48 17 106 1
49 18 21 1
50 18 22 1
51 18 107 1
52 18 108 1
53 19 20 1
54 19 21 1
55 19 23 1
56 19 109 1
57 20 26 1
58 20 27 1
59 20 110 1
60 21 25 1
61 21 111 1
62 22 24 1
63 22 112 1
64 23 28 1
65 23 30 1
66 23 113 1
67 24 25 1
68 24 114 1
69 25 26 1
70 25 115 1
71 26 116 1
72 27 29 1
73 27 117 1
74 28 83 1
75 28 84 1
76 29 38 1
77 29 118 1
78 30 46 1
79 30 47 1
80 30 119 1
81 31 32 1
82 31 120 1
83 31 121 1
84 32 34 1
85 32 122 1
86 32 123 1
87 33 35 1
88 33 36 1
89 33 80 1
90 33 81 1
91 34 35 1
92 34 41 1
93 34 124 1
94 35 55 1
95 35 125 1
96 36 54 1
97 36 63 1
98 36 82 1
99 37 45 1
100 37 49 1
101 37 51 1
102 37 126 1
103 38 41 1
104 38 46 1
105 38 127 1
106 39 40 1
107 39 47 1
108 39 57 1
109 39 128 1
110 40 42 1
111 40 45 1
112 40 129 1
113 41 44 1
114 41 130 1
115 42 44 1
116 42 46 1
117 42 131 1
118 43 45 1
119 43 48 1
120 43 58 1
121 43 132 1
122 44 49 1
123 44 133 1
124 45 134 1
125 46 135 1
126 47 50 1
127 48 56 1
128 48 62 1
129 48 136 1
130 49 55 1
131 49 137 1
132 28 50 1
133 50 60 1
134 51 52 1
135 51 56 1
136 51 138 1
137 52 53 1
138 52 139 1
139 52 140 1
140 53 54 1
141 53 65 1
142 53 141 1
143 54 55 1
144 54 142 1
145 55 143 1
146 57 58 1
147 57 59 1
148 57 144 1
149 59 60 1
150 59 145 1
151 59 146 1
152 60 147 1
153 60 148 1
154 58 61 1
155 61 62 1
156 61 78 1
157 61 79 1
158 62 66 1
159 62 149 1
160 63 64 1
161 63 86 1
162 63 150 1
163 64 65 1
164 64 85 1
165 64 87 1
166 65 89 1
167 65 91 1
168 66 67 1
169 66 96 1
170 66 98 1
171 56 67 1
172 67 77 1
@<TRIPOS>SUBSTRUCTURE
1	UNK1	1	GROUP	1 ****	UNK
