# created with PyMOL 2.5.5
@<TRIPOS>MOLECULE
full_87
84 104 1                
SMALL
USER_CHARGES
@<TRIPOS>ATOM
1	1C02	12.937	16.346	29.838	C.3	1	UNK1	0.000	
2	1C03	11.823	16.746	30.838	C.3	1	UNK1	0.000	
3	 C19	16.116	14.060	31.026	C.3	1	UNK1	0.000	
4	 C20	13.687	15.102	30.431	C.3	1	UNK1	0.000	
5	 C21	16.146	14.194	32.561	C.3	1	UNK1	0.000	
6	 C22	15.240	15.060	30.171	C.3	1	UNK1	0.000	
7	 C46	11.224	17.510	33.860	C.2	1	UNK1	0.000	
8	 C55	11.766	18.201	34.946	C.2	1	UNK1	0.000	
9	 C56	11.821	15.749	31.992	C.3	1	UNK1	0.000	
10	 C58	11.995	16.519	33.286	C.2	1	UNK1	0.000	
11	 C60	13.128	14.914	31.859	C.3	1	UNK1	0.000	
12	 C61	13.943	15.441	32.979	C.2	1	UNK1	0.000	
13	 C62	13.266	16.324	33.788	C.2	1	UNK1	0.000	
14	 C63	15.256	15.171	33.223	C.2	1	UNK1	0.000	
15	 C64	13.844	17.015	34.885	C.2	1	UNK1	0.000	
16	 C65	15.902	15.908	34.171	C.2	1	UNK1	0.000	
17	 C66	13.013	17.950	35.548	C.2	1	UNK1	0.000	
18	 C67	15.245	16.788	35.037	C.2	1	UNK1	0.000	
19	 C68	17.277	15.774	34.037	C.2	1	UNK1	0.000	
20	 C69	16.111	17.499	35.831	C.2	1	UNK1	0.000	
21	 C70	18.134	16.637	34.742	C.2	1	UNK1	0.000	
22	 C71	17.510	17.531	35.617	C.2	1	UNK1	0.000	
23	 C72	15.775	18.458	36.814	C.2	1	UNK1	0.000	
24	 C73	14.574	18.771	37.556	C.3	1	UNK1	0.000	
25	 C74	16.825	19.223	37.053	C.2	1	UNK1	0.000	
26	 C75	18.073	18.686	36.428	C.2	1	UNK1	0.000	
27	C105	16.439	20.435	37.807	C.3	1	UNK1	0.000	
28	C107	14.867	20.232	37.991	C.3	1	UNK1	0.000	
29	 C01	15.543	14.737	28.657	C.3	1	UNK1	0.000	
30	 C02	13.749	17.622	29.514	C.3	1	UNK1	0.000	
31	 C03	14.796	17.605	28.402	C.3	1	UNK1	0.000	
32	 C04	14.539	16.663	27.238	C.3	1	UNK1	0.000	
33	 C05	14.582	15.168	27.549	C.3	1	UNK1	0.000	
34	 C06	9.880	18.133	33.503	C.3	1	UNK1	0.000	
35	 C07	10.445	16.883	30.180	C.3	1	UNK1	0.000	
36	 C08	9.956	19.386	34.373	C.2	1	UNK1	0.000	
37	 C09	11.042	19.307	35.221	C.2	1	UNK1	0.000	
38	 C10	13.231	18.667	36.873	C.3	1	UNK1	0.000	
39	 C11	12.582	20.070	37.051	C.3	1	UNK1	0.000	
40	 C12	11.462	20.338	36.074	C.2	1	UNK1	0.000	
41	 C13	9.599	18.471	32.030	C.3	1	UNK1	0.000	
42	 C14	9.315	17.247	31.149	C.3	1	UNK1	0.000	
43	 C15	13.715	21.105	37.387	C.3	1	UNK1	0.000	
44	 C16	17.633	14.135	30.704	C.3	1	UNK1	0.000	
45	 C17	17.566	14.704	33.006	C.3	1	UNK1	0.000	
46	 C18	18.206	15.139	31.700	C.3	1	UNK1	0.000	
47	 C23	9.196	20.543	34.368	C.2	1	UNK1	0.000	
48	 C24	10.798	21.554	35.942	C.2	1	UNK1	0.000	
49	 C25	9.640	21.636	35.131	C.2	1	UNK1	0.000	
50	 C26	14.037	22.191	36.344	C.3	1	UNK1	0.000	
51	 C27	16.920	21.687	37.075	C.3	1	UNK1	0.000	
52	 C28	16.216	22.910	37.668	C.3	1	UNK1	0.000	
53	 C29	14.961	23.305	36.905	C.3	1	UNK1	0.000	
54	 C30	11.452	22.801	36.467	C.3	1	UNK1	0.000	
55	 C31	12.805	22.957	35.749	C.3	1	UNK1	0.000	
56	 C32	18.453	21.886	37.160	C.3	1	UNK1	0.000	
57	 C33	18.895	19.736	35.684	C.3	1	UNK1	0.000	
58	 C34	19.409	20.755	36.729	C.3	1	UNK1	0.000	
59	 C35	20.085	19.108	34.909	C.3	1	UNK1	0.000	
60	 C36	20.453	17.665	35.281	C.3	1	UNK1	0.000	
61	 C37	19.620	16.613	34.531	C.3	1	UNK1	0.000	
62	 H01	13.021	24.033	35.703	 H	1	UNK1	0.000	
63	 H02	19.989	15.621	34.819	 H	1	UNK1	0.000	
64	 H03	9.113	22.583	35.036	 H	1	UNK1	0.000	
65	 H04	19.298	15.090	31.741	 H	1	UNK1	0.000	
66	 H05	10.825	23.669	36.228	 H	1	UNK1	0.000	
67	 H06	10.178	15.947	29.673	 H	1	UNK1	0.000	
68	 H07	14.229	17.995	30.429	 H	1	UNK1	0.000	
69	 H08	8.330	20.649	33.723	 H	1	UNK1	0.000	
70	 H09	15.635	13.646	28.561	 H	1	UNK1	0.000	
71	 H10	14.861	18.626	28.000	 H	1	UNK1	0.000	
72	 H11	17.923	16.162	31.424	 H	1	UNK1	0.000	
73	 H12	10.389	19.102	31.605	 H	1	UNK1	0.000	
74	 H13	18.696	22.760	36.539	 H	1	UNK1	0.000	
75	 H14	13.582	16.905	26.761	 H	1	UNK1	0.000	
76	 H15	14.896	14.663	26.624	 H	1	UNK1	0.000	
77	 H16	9.043	16.382	31.764	 H	1	UNK1	0.000	
78	 H17	17.890	14.407	29.681	 H	1	UNK1	0.000	
79	 H18	18.084	13.150	30.885	 H	1	UNK1	0.000	
80	 H19	19.733	20.211	37.628	 H	1	UNK1	0.000	
81	 H20	20.981	19.730	35.026	 H	1	UNK1	0.000	
82	 H21	15.968	22.740	38.724	 H	1	UNK1	0.000	
83	 H22	15.278	23.928	36.057	 H	1	UNK1	0.000	
84	 H23	21.502	17.502	35.000	 H	1	UNK1	0.000	
@<TRIPOS>BOND
1 1 2 1
2 1 4 1
3 1 30 1
4 2 9 1
5 2 35 1
6 3 5 1
7 3 6 1
8 3 44 1
9 4 6 1
10 4 11 1
11 5 14 1
12 5 45 1
13 6 29 1
14 7 8 ar
15 7 10 ar
16 7 34 1
17 8 17 ar
18 8 37 ar
19 9 11 1
20 9 10 1
21 10 13 ar
22 11 12 1
23 12 13 ar
24 12 14 ar
25 13 15 ar
26 14 16 ar
27 15 17 ar
28 15 18 ar
29 16 18 ar
30 16 19 ar
31 18 20 ar
32 19 21 ar
33 20 22 ar
34 20 23 ar
35 21 22 ar
36 21 61 1
37 22 26 ar
38 23 24 1
39 23 25 ar
40 24 28 1
41 25 26 ar
42 25 27 1
43 26 57 1
44 27 28 1
45 27 51 1
46 28 43 1
47 29 33 1
48 29 70 1
49 30 31 1
50 30 68 1
51 31 32 1
52 31 71 1
53 32 33 1
54 32 75 1
55 33 76 1
56 34 36 1
57 34 41 1
58 35 42 1
59 35 67 1
60 36 47 ar
61 36 37 ar
62 17 38 1
63 24 38 1
64 38 39 1
65 39 40 1
66 39 43 1
67 37 40 ar
68 40 48 ar
69 41 42 1
70 41 73 1
71 42 77 1
72 43 50 1
73 44 78 1
74 44 79 1
75 19 45 1
76 45 46 1
77 44 46 1
78 46 65 1
79 46 72 1
80 47 49 ar
81 47 69 1
82 48 49 ar
83 48 54 1
84 49 64 1
85 50 53 1
86 50 55 1
87 51 52 1
88 51 56 1
89 52 82 1
90 52 53 1
91 53 83 1
92 54 66 1
93 54 55 1
94 55 62 1
95 56 58 1
96 56 74 1
97 57 58 1
98 57 59 1
99 58 80 1
100 59 60 1
101 59 81 1
102 60 84 1
103 60 61 1
104 61 63 1
@<TRIPOS>SUBSTRUCTURE
1	UNK1	1	GROUP	1 ****	UNK
