# created with PyMOL 2.5.5
@<TRIPOS>MOLECULE
N14
68 81 1                 
SMALL
USER_CHARGES
@<TRIPOS>ATOM
1	 C01	-0.605	-1.405	0.366	C.2	1	UNK1	0.000	
2	 C02	0.913	-1.379	0.626	C.3	1	UNK1	0.000	
3	 C03	-1.289	-0.264	0.308	C.2	1	UNK1	0.000	
4	 C04	1.613	-0.041	0.338	C.2	1	UNK1	0.000	
5	 C05	-0.590	1.056	0.216	C.2	1	UNK1	0.000	
6	 C06	0.825	1.128	0.236	C.2	1	UNK1	0.000	
7	 C07	-1.283	-2.697	0.242	C.2	1	UNK1	0.000	
8	 C08	1.636	-2.603	0.105	C.2	1	UNK1	0.000	
9	 C09	-2.797	-0.285	0.438	C.3	1	UNK1	0.000	
10	 C10	3.013	0.006	0.240	C.2	1	UNK1	0.000	
11	 C11	-1.374	2.224	0.086	C.2	1	UNK1	0.000	
12	 C12	1.473	2.385	0.164	C.2	1	UNK1	0.000	
13	 C13	-2.704	-2.833	0.151	C.2	1	UNK1	0.000	
14	 C14	0.947	-3.828	-0.095	C.2	1	UNK1	0.000	
15	 C15	-0.482	-3.919	0.117	C.2	1	UNK1	0.000	
16	 C16	3.678	1.248	0.082	C.2	1	UNK1	0.000	
17	 C17	-0.729	3.495	0.138	C.2	1	UNK1	0.000	
18	 C18	-3.500	0.971	-0.135	C.2	1	UNK1	0.000	
19	 C19	2.905	2.436	0.126	C.2	1	UNK1	0.000	
20	 C20	-2.864	2.163	-0.163	C.2	1	UNK1	0.000	
21	 C21	-3.507	-1.595	0.044	C.2	1	UNK1	0.000	
22	 C22	0.693	3.566	0.133	C.2	1	UNK1	0.000	
23	 C23	3.042	-2.559	-0.040	C.2	1	UNK1	0.000	
24	 C24	5.852	-0.036	-0.476	C.2	1	UNK1	0.000	
25	 C25	5.202	1.240	-0.119	C.3	1	UNK1	0.000	
26	 C26	3.831	-1.296	0.352	C.3	1	UNK1	0.000	
27	 C27	5.211	-1.202	-0.299	C.2	1	UNK1	0.000	
28	 C28	1.428	4.902	0.052	C.3	1	UNK1	0.000	
29	 C29	3.587	3.746	0.139	C.2	1	UNK1	0.000	
30	 C30	2.883	4.883	0.031	C.2	1	UNK1	0.000	
31	 C31	-3.576	3.475	-0.456	C.3	1	UNK1	0.000	
32	 C32	-1.556	4.725	0.198	C.2	1	UNK1	0.000	
33	 C33	-2.872	4.678	-0.017	C.2	1	UNK1	0.000	
34	 C34	-4.805	-1.604	-0.368	C.2	1	UNK1	0.000	
35	 C35	-4.892	0.823	-0.573	C.2	1	UNK1	0.000	
36	 C36	-5.510	-0.370	-0.602	C.2	1	UNK1	0.000	
37	 C37	-1.161	-5.157	0.184	C.2	1	UNK1	0.000	
38	 C38	-3.308	-4.104	0.156	C.2	1	UNK1	0.000	
39	 C39	-2.541	-5.235	0.153	C.2	1	UNK1	0.000	
40	 C40	1.719	-4.930	-0.560	C.2	1	UNK1	0.000	
41	 C41	3.765	-3.676	-0.469	C.2	1	UNK1	0.000	
42	 C42	3.103	-4.877	-0.676	C.2	1	UNK1	0.000	
43	 C43	5.860	-2.427	-0.716	C.2	1	UNK1	0.000	
44	 C44	5.211	-3.611	-0.722	C.2	1	UNK1	0.000	
45	 H01	5.668	1.635	0.798	 H	1	UNK1	0.000	
46	 H02	6.853	-0.011	-0.884	 H	1	UNK1	0.000	
47	 H03	1.131	5.501	0.939	 H	1	UNK1	0.000	
48	 H04	-0.654	-6.137	0.330	 H	1	UNK1	0.000	
49	 H05	4.660	3.943	0.241	 H	1	UNK1	0.000	
50	 H06	6.905	-2.372	-1.046	 H	1	UNK1	0.000	
51	 H07	-1.184	5.732	0.430	 H	1	UNK1	0.000	
52	 H08	3.445	5.812	-0.057	 H	1	UNK1	0.000	
53	 H09	-4.551	3.519	0.068	 H	1	UNK1	0.000	
54	 H10	-5.470	-2.431	-0.607	 H	1	UNK1	0.000	
55	 H11	-5.576	1.601	-0.909	 H	1	UNK1	0.000	
56	 H12	-3.446	5.594	0.130	 H	1	UNK1	0.000	
57	 H14	-6.576	-0.443	-0.842	 H	1	UNK1	0.000	
58	 H16	-3.005	-6.229	0.150	 H	1	UNK1	0.000	
59	 H17	-4.379	-4.322	0.257	 H	1	UNK1	0.000	
60	 H18	3.628	-5.797	-0.959	 H	1	UNK1	0.000	
61	 H20	1.336	-5.901	-0.923	 H	1	UNK1	0.000	
62	 H22	5.743	-4.540	-0.953	 H	1	UNK1	0.000	
63	 H24	5.427	1.926	-0.955	 H	1	UNK1	0.000	
64	 H25	1.075	5.419	-0.860	 H	1	UNK1	0.000	
65	 H26	-3.790	3.526	-1.536	 H	1	UNK1	0.000	
66	 H37	4.021	-1.424	1.427	 H	1	UNK1	0.000	
67	 H46	0.993	-1.459	1.721	 H	1	UNK1	0.000	
68	 H55	-2.952	-0.229	1.527	 H	1	UNK1	0.000	
@<TRIPOS>BOND
1 1 2 1
2 1 3 2
3 1 7 1
4 2 4 1
5 2 8 1
6 2 67 1
7 3 5 1
8 3 9 1
9 4 6 1
10 4 10 2
11 5 6 1
12 5 11 2
13 6 12 2
14 7 13 1
15 7 15 2
16 8 14 2
17 8 23 1
18 9 18 1
19 9 21 1
20 9 68 1
21 10 16 1
22 10 26 1
23 11 17 1
24 11 20 1
25 12 19 1
26 12 22 1
27 13 21 1
28 13 38 2
29 14 15 1
30 14 40 1
31 15 37 1
32 16 19 2
33 16 25 1
34 17 22 2
35 17 32 1
36 18 20 2
37 18 35 1
38 19 29 1
39 20 31 1
40 21 34 2
41 22 28 1
42 23 26 1
43 23 41 2
44 24 25 1
45 24 27 2
46 24 46 1
47 25 45 1
48 25 63 1
49 26 27 1
50 26 66 1
51 27 43 1
52 28 30 1
53 28 47 1
54 28 64 1
55 29 30 2
56 29 49 1
57 30 52 1
58 31 33 1
59 31 53 1
60 31 65 1
61 32 33 2
62 32 51 1
63 33 56 1
64 34 36 1
65 34 54 1
66 35 36 2
67 35 55 1
68 36 57 1
69 37 39 2
70 37 48 1
71 38 39 1
72 38 59 1
73 39 58 1
74 40 42 2
75 40 61 1
76 41 42 1
77 41 44 1
78 42 60 1
79 43 44 2
80 43 50 1
81 44 62 1
@<TRIPOS>SUBSTRUCTURE
1	UNK1	1	GROUP	1 ****	UNK
