# created with PyMOL 2.5.5
@<TRIPOS>MOLECULE
9115
72 86 1                 
SMALL
USER_CHARGES
@<TRIPOS>ATOM
1	 C01	-0.596	-1.401	0.402	C.2	1	UNK1	0.000	
2	 C02	0.925	-1.372	0.648	C.3	1	UNK1	0.000	
3	 C03	-1.284	-0.264	0.337	C.2	1	UNK1	0.000	
4	 C04	1.621	-0.065	0.289	C.2	1	UNK1	0.000	
5	 C05	-0.608	1.056	0.216	C.2	1	UNK1	0.000	
6	 C06	0.790	1.160	0.217	C.2	1	UNK1	0.000	
7	 C07	-1.263	-2.701	0.302	C.2	1	UNK1	0.000	
8	 C08	1.648	-2.595	0.110	C.2	1	UNK1	0.000	
9	 C09	-2.794	-0.286	0.482	C.3	1	UNK1	0.000	
10	 C10	2.955	0.021	0.043	C.2	1	UNK1	0.000	
11	 C11	-1.381	2.230	0.045	C.2	1	UNK1	0.000	
12	 C12	1.435	2.416	0.159	C.2	1	UNK1	0.000	
13	 C13	-2.684	-2.845	0.237	C.2	1	UNK1	0.000	
14	 C14	0.969	-3.815	-0.066	C.2	1	UNK1	0.000	
15	 C15	-0.455	-3.921	0.172	C.2	1	UNK1	0.000	
16	 C16	3.589	1.289	-0.443	C.3	1	UNK1	0.000	
17	 C17	-0.738	3.507	0.025	C.2	1	UNK1	0.000	
18	 C18	-3.505	0.958	-0.111	C.2	1	UNK1	0.000	
19	 C19	2.968	2.477	0.321	C.3	1	UNK1	0.000	
20	 C20	-2.874	2.154	-0.186	C.2	1	UNK1	0.000	
21	 C21	-3.497	-1.610	0.122	C.2	1	UNK1	0.000	
22	 C22	0.681	3.596	-0.001	C.2	1	UNK1	0.000	
23	 C23	3.053	-2.515	-0.101	C.2	1	UNK1	0.000	
24	 C24	5.862	0.065	-0.541	C.2	1	UNK1	0.000	
25	 C25	5.131	1.322	-0.391	C.2	1	UNK1	0.000	
26	 C26	3.799	-1.217	0.227	C.3	1	UNK1	0.000	
27	 C27	5.206	-1.109	-0.408	C.2	1	UNK1	0.000	
28	 C28	1.459	4.912	-0.213	C.3	1	UNK1	0.000	
29	 C29	3.635	3.774	-0.089	C.2	1	UNK1	0.000	
30	 C30	2.927	4.871	-0.381	C.2	1	UNK1	0.000	
31	 C31	-3.589	3.453	-0.518	C.3	1	UNK1	0.000	
32	 C32	-1.562	4.742	0.040	C.2	1	UNK1	0.000	
33	 C33	-2.881	4.681	-0.145	C.2	1	UNK1	0.000	
34	 C34	-4.797	-1.634	-0.274	C.2	1	UNK1	0.000	
35	 C35	-4.902	0.791	-0.522	C.2	1	UNK1	0.000	
36	 C36	-5.513	-0.409	-0.519	C.2	1	UNK1	0.000	
37	 C37	-1.125	-5.162	0.259	C.2	1	UNK1	0.000	
38	 C38	-3.279	-4.121	0.273	C.2	1	UNK1	0.000	
39	 C39	-2.504	-5.247	0.261	C.2	1	UNK1	0.000	
40	 C40	1.746	-4.911	-0.547	C.2	1	UNK1	0.000	
41	 C41	3.781	-3.623	-0.532	C.2	1	UNK1	0.000	
42	 C42	3.128	-4.835	-0.711	C.2	1	UNK1	0.000	
43	 C43	5.868	-2.346	-0.802	C.2	1	UNK1	0.000	
44	 C44	5.220	-3.531	-0.806	C.2	1	UNK1	0.000	
45	 C45	5.829	2.474	-0.305	C.2	1	UNK1	0.000	
46	 C46	5.155	3.815	-0.137	C.3	1	UNK1	0.000	
47	 H01	3.654	-5.751	-1.005	 H	1	UNK1	0.000	
48	 H02	6.908	2.461	-0.351	 H	1	UNK1	0.000	
49	 H03	-0.600	-6.132	0.397	 H	1	UNK1	0.000	
50	 H04	5.748	-4.459	-1.042	 H	1	UNK1	0.000	
51	 H05	1.239	5.561	0.654	 H	1	UNK1	0.000	
52	 H06	6.912	-2.289	-1.114	 H	1	UNK1	0.000	
53	 H07	-1.149	5.745	0.222	 H	1	UNK1	0.000	
54	 H08	5.513	4.245	0.803	 H	1	UNK1	0.000	
55	 H09	-3.456	5.601	-0.027	 H	1	UNK1	0.000	
56	 H10	-5.460	-2.471	-0.490	 H	1	UNK1	0.000	
57	 H11	-5.594	1.560	-0.860	 H	1	UNK1	0.000	
58	 H12	3.343	1.361	-1.515	 H	1	UNK1	0.000	
59	 H13	3.156	2.368	1.399	 H	1	UNK1	0.000	
60	 H14	-6.582	-0.495	-0.742	 H	1	UNK1	0.000	
61	 H15	3.990	-1.282	1.307	 H	1	UNK1	0.000	
62	 H16	-2.966	-6.241	0.280	 H	1	UNK1	0.000	
63	 H17	-4.349	-4.335	0.408	 H	1	UNK1	0.000	
64	 H18	1.365	-5.888	-0.884	 H	1	UNK1	0.000	
65	 H19	1.016	-1.438	1.744	 H	1	UNK1	0.000	
66	 H20	6.964	0.108	-0.767	 H	1	UNK1	0.000	
67	 H21	-2.941	-0.207	1.570	 H	1	UNK1	0.000	
68	 H22	5.481	4.460	-0.957	 H	1	UNK1	0.000	
69	 H23	1.050	5.380	-1.123	 H	1	UNK1	0.000	
70	 H24	3.441	5.756	-0.742	 H	1	UNK1	0.000	
71	 H56	-4.554	3.512	0.022	 H	1	UNK1	0.000	
72	 H57	-3.821	3.461	-1.595	 H	1	UNK1	0.000	
@<TRIPOS>BOND
1 1 2 1
2 1 3 2
3 1 7 1
4 2 4 1
5 2 8 1
6 2 65 1
7 3 5 1
8 3 9 1
9 4 6 1
10 4 10 2
11 5 6 1
12 5 11 2
13 6 12 2
14 7 13 1
15 7 15 2
16 8 14 2
17 8 23 1
18 9 18 1
19 9 21 1
20 9 67 1
21 10 16 1
22 10 26 1
23 11 17 1
24 11 20 1
25 12 19 1
26 12 22 1
27 13 21 1
28 13 38 2
29 14 15 1
30 14 40 1
31 15 37 1
32 16 19 1
33 16 25 1
34 16 58 1
35 17 22 2
36 17 32 1
37 18 20 2
38 18 35 1
39 19 29 1
40 19 59 1
41 20 31 1
42 21 34 2
43 22 28 1
44 23 26 1
45 23 41 2
46 24 25 1
47 24 27 2
48 24 66 1
49 25 45 2
50 26 27 1
51 26 61 1
52 27 43 1
53 28 30 1
54 28 51 1
55 28 69 1
56 29 30 2
57 29 46 1
58 30 70 1
59 31 33 1
60 31 71 1
61 31 72 1
62 32 33 2
63 32 53 1
64 33 55 1
65 34 36 1
66 34 56 1
67 35 36 2
68 35 57 1
69 36 60 1
70 37 39 2
71 37 49 1
72 38 39 1
73 38 63 1
74 39 62 1
75 40 42 2
76 40 64 1
77 41 42 1
78 41 44 1
79 42 47 1
80 43 44 2
81 43 52 1
82 44 50 1
83 45 46 1
84 45 48 1
85 46 54 1
86 46 68 1
@<TRIPOS>SUBSTRUCTURE
1	UNK1	1	GROUP	1 ****	UNK
