# created with PyMOL 2.5.5
@<TRIPOS>MOLECULE
9115
72 87 1                 
SMALL
USER_CHARGES
@<TRIPOS>ATOM
1	 C01	-0.532	-1.505	0.736	C.3	1	UNK1	0.000	
2	 C02	0.989	-1.441	0.508	C.2	1	UNK1	0.000	
3	 C03	-1.336	-0.208	0.443	C.2	1	UNK1	0.000	
4	 C04	1.606	-0.102	0.429	C.2	1	UNK1	0.000	
5	 C05	-0.721	0.969	0.391	C.2	1	UNK1	0.000	
6	 C06	0.747	1.100	0.368	C.2	1	UNK1	0.000	
7	 C07	-1.202	-2.764	0.183	C.2	1	UNK1	0.000	
8	 C08	1.715	-2.593	0.329	C.2	1	UNK1	0.000	
9	 C09	-2.794	-0.311	0.298	C.2	1	UNK1	0.000	
10	 C10	2.962	-0.036	0.358	C.2	1	UNK1	0.000	
11	 C11	-1.555	2.246	0.501	C.3	1	UNK1	0.000	
12	 C12	1.318	2.333	0.258	C.2	1	UNK1	0.000	
13	 C13	-2.599	-2.803	-0.017	C.2	1	UNK1	0.000	
14	 C14	1.060	-3.990	0.353	C.3	1	UNK1	0.000	
15	 C15	-0.431	-3.938	-0.010	C.2	1	UNK1	0.000	
16	 C16	3.662	1.224	0.200	C.2	1	UNK1	0.000	
17	 C17	-0.837	3.496	-0.054	C.2	1	UNK1	0.000	
18	 C18	-3.655	0.828	0.178	C.2	1	UNK1	0.000	
19	 C19	2.841	2.477	0.468	C.3	1	UNK1	0.000	
20	 C20	-3.026	2.159	0.066	C.2	1	UNK1	0.000	
21	 C21	-3.422	-1.630	0.185	C.2	1	UNK1	0.000	
22	 C22	0.522	3.551	-0.062	C.2	1	UNK1	0.000	
23	 C23	3.149	-2.571	0.133	C.2	1	UNK1	0.000	
24	 C24	5.785	0.037	-0.356	C.2	1	UNK1	0.000	
25	 C25	4.995	1.245	-0.148	C.2	1	UNK1	0.000	
26	 C26	3.855	-1.268	0.497	C.3	1	UNK1	0.000	
27	 C27	5.229	-1.162	-0.168	C.2	1	UNK1	0.000	
28	 C28	1.314	4.836	-0.372	C.3	1	UNK1	0.000	
29	 C29	3.477	3.697	-0.209	C.2	1	UNK1	0.000	
30	 C30	2.781	4.786	-0.532	C.2	1	UNK1	0.000	
31	 C31	-3.700	3.260	-0.367	C.2	1	UNK1	0.000	
32	 C32	-1.671	4.616	-0.471	C.2	1	UNK1	0.000	
33	 C33	-3.015	4.509	-0.551	C.2	1	UNK1	0.000	
34	 C34	-4.837	-1.694	0.249	C.2	1	UNK1	0.000	
35	 C35	-5.056	0.684	0.159	C.2	1	UNK1	0.000	
36	 C36	-5.620	-0.559	0.188	C.2	1	UNK1	0.000	
37	 C37	-1.021	-5.126	-0.462	C.2	1	UNK1	0.000	
38	 C38	-3.148	-4.032	-0.486	C.2	1	UNK1	0.000	
39	 C39	-2.398	-5.188	-0.634	C.2	1	UNK1	0.000	
40	 C40	1.840	-5.069	-0.399	C.2	1	UNK1	0.000	
41	 C41	3.822	-3.679	-0.314	C.2	1	UNK1	0.000	
42	 C42	3.155	-4.943	-0.607	C.2	1	UNK1	0.000	
43	 C43	5.921	-2.377	-0.553	C.2	1	UNK1	0.000	
44	 C44	5.270	-3.567	-0.552	C.2	1	UNK1	0.000	
45	 C45	5.630	2.548	-0.389	C.2	1	UNK1	0.000	
46	 C46	4.903	3.692	-0.488	C.2	1	UNK1	0.000	
47	 C47	1.125	-6.255	-0.830	C.2	1	UNK1	0.000	
48	 C48	-0.222	-6.324	-0.778	C.2	1	UNK1	0.000	
49	 H01	1.710	-7.100	-1.218	 H	1	UNK1	0.000	
50	 H02	5.361	4.632	-0.815	 H	1	UNK1	0.000	
51	 H03	1.105	5.554	0.432	 H	1	UNK1	0.000	
52	 H04	6.822	0.093	-0.697	 H	1	UNK1	0.000	
53	 H05	3.287	5.661	-0.926	 H	1	UNK1	0.000	
54	 H06	6.966	-2.291	-0.871	 H	1	UNK1	0.000	
55	 H07	-4.744	3.387	-0.649	 H	1	UNK1	0.000	
56	 H08	6.722	2.526	-0.545	 H	1	UNK1	0.000	
57	 H09	-3.642	5.373	-0.797	 H	1	UNK1	0.000	
58	 H10	-6.709	-0.688	0.186	 H	1	UNK1	0.000	
59	 H11	-5.405	-2.638	0.420	 H	1	UNK1	0.000	
60	 H12	-1.333	5.609	-0.746	 H	1	UNK1	0.000	
61	 H14	-5.804	1.480	0.219	 H	1	UNK1	0.000	
62	 H16	-0.755	-7.255	-1.013	 H	1	UNK1	0.000	
63	 H17	-2.911	-6.116	-0.917	 H	1	UNK1	0.000	
64	 H18	3.718	-5.778	-1.018	 H	1	UNK1	0.000	
65	 H19	-4.179	-4.225	-0.840	 H	1	UNK1	0.000	
66	 H20	5.784	-4.515	-0.786	 H	1	UNK1	0.000	
67	 H37	-0.617	-1.615	1.827	 H	1	UNK1	0.000	
68	 H39	1.091	-4.314	1.403	 H	1	UNK1	0.000	
69	 H43	4.070	-1.325	1.577	 H	1	UNK1	0.000	
70	 H51	0.932	5.238	-1.326	 H	1	UNK1	0.000	
71	 H52	2.928	2.654	1.552	 H	1	UNK1	0.000	
72	 H61	-1.621	2.407	1.588	 H	1	UNK1	0.000	
@<TRIPOS>BOND
1 1 2 1
2 1 3 1
3 1 7 1
4 1 67 1
5 2 4 1
6 2 8 2
7 3 5 2
8 3 9 1
9 4 6 1
10 4 10 2
11 5 6 1
12 5 11 1
13 6 12 2
14 7 13 2
15 7 15 1
16 8 14 1
17 8 23 1
18 9 18 1
19 9 21 2
20 10 16 1
21 10 26 1
22 11 17 1
23 11 20 1
24 11 72 1
25 12 19 1
26 12 22 1
27 13 21 1
28 13 38 1
29 14 15 1
30 14 40 1
31 14 68 1
32 15 37 2
33 16 19 1
34 16 25 2
35 17 22 2
36 17 32 1
37 18 20 1
38 18 35 2
39 19 29 1
40 19 71 1
41 20 31 2
42 21 34 1
43 22 28 1
44 23 26 1
45 23 41 2
46 24 25 1
47 24 27 2
48 24 52 1
49 25 45 1
50 26 27 1
51 26 69 1
52 27 43 1
53 28 30 1
54 28 51 1
55 28 70 1
56 29 30 2
57 29 46 1
58 30 53 1
59 31 33 1
60 31 55 1
61 32 33 2
62 32 60 1
63 33 57 1
64 34 36 2
65 34 59 1
66 35 36 1
67 35 61 1
68 36 58 1
69 37 39 1
70 37 48 1
71 38 39 2
72 38 65 1
73 39 63 1
74 40 42 2
75 40 47 1
76 41 42 1
77 41 44 1
78 42 64 1
79 43 44 2
80 43 54 1
81 44 66 1
82 45 46 2
83 45 56 1
84 46 50 1
85 47 48 2
86 47 49 1
87 48 62 1
@<TRIPOS>SUBSTRUCTURE
1	UNK1	1	GROUP	1 ****	UNK
