# created with PyMOL 2.5.5
@<TRIPOS>MOLECULE
9115
48 56 1                 
SMALL
USER_CHARGES
@<TRIPOS>ATOM
1	 C01	-0.661	-1.477	-0.175	C.2	1	UNK1	0.000	
2	 C02	0.826	-1.440	-0.541	C.3	1	UNK1	0.000	
3	 C03	-1.390	-0.345	-0.093	C.2	1	UNK1	0.000	
4	 C04	1.505	-0.103	-0.234	C.2	1	UNK1	0.000	
5	 C05	-0.687	0.977	-0.151	C.2	1	UNK1	0.000	
6	 C06	0.726	1.059	-0.158	C.2	1	UNK1	0.000	
7	 C07	-1.274	-2.787	0.062	C.2	1	UNK1	0.000	
8	 C08	1.604	-2.653	-0.050	C.2	1	UNK1	0.000	
9	 C09	-2.846	-0.372	0.056	C.2	1	UNK1	0.000	
10	 C10	2.892	-0.049	-0.074	C.2	1	UNK1	0.000	
11	 C11	-1.475	2.138	-0.124	C.2	1	UNK1	0.000	
12	 C12	1.359	2.319	-0.075	C.2	1	UNK1	0.000	
13	 C13	-2.777	-2.869	0.219	C.3	1	UNK1	0.000	
14	 C14	0.976	-3.819	0.180	C.2	1	UNK1	0.000	
15	 C15	-0.484	-3.887	0.150	C.2	1	UNK1	0.000	
16	 C16	3.560	1.194	0.013	C.2	1	UNK1	0.000	
17	 C17	-0.849	3.389	-0.111	C.2	1	UNK1	0.000	
18	 C18	-3.586	0.888	0.021	C.2	1	UNK1	0.000	
19	 C19	2.786	2.385	-0.043	C.2	1	UNK1	0.000	
20	 C20	-2.950	2.066	-0.084	C.2	1	UNK1	0.000	
21	 C21	-3.479	-1.543	0.212	C.2	1	UNK1	0.000	
22	 C22	0.553	3.480	-0.041	C.2	1	UNK1	0.000	
23	 C23	3.042	-2.514	0.108	C.2	1	UNK1	0.000	
24	 C24	5.783	-0.121	0.111	C.2	1	UNK1	0.000	
25	 C25	5.080	1.193	0.170	C.3	1	UNK1	0.000	
26	 C26	3.680	-1.320	0.018	C.2	1	UNK1	0.000	
27	 C27	5.130	-1.287	0.072	C.2	1	UNK1	0.000	
28	 C28	1.170	4.852	0.072	C.3	1	UNK1	0.000	
29	 C29	3.412	3.726	-0.076	C.2	1	UNK1	0.000	
30	 C30	2.663	4.843	0.007	C.2	1	UNK1	0.000	
31	 H01	5.669	-2.238	0.085	 H	1	UNK1	0.000	
32	 H02	3.603	-3.433	0.315	 H	1	UNK1	0.000	
33	 H03	4.480	3.892	-0.175	 H	1	UNK1	0.000	
34	 H04	5.319	1.658	1.137	 H	1	UNK1	0.000	
35	 H05	3.166	5.806	0.025	 H	1	UNK1	0.000	
36	 H06	6.865	-0.116	0.104	 H	1	UNK1	0.000	
37	 H07	1.521	-4.741	0.398	 H	1	UNK1	0.000	
38	 H09	-0.923	-4.887	0.239	 H	1	UNK1	0.000	
39	 H10	-4.559	-1.575	0.344	 H	1	UNK1	0.000	
40	 H11	-4.671	0.851	0.083	 H	1	UNK1	0.000	
41	 H12	-3.499	3.007	-0.135	 H	1	UNK1	0.000	
42	 H13	-3.018	-3.376	1.162	 H	1	UNK1	0.000	
43	 H14	-3.187	-3.475	-0.597	 H	1	UNK1	0.000	
44	 H15	-1.451	4.300	-0.146	 H	1	UNK1	0.000	
45	 H27	0.856	-1.508	-1.640	 H	1	UNK1	0.000	
46	 H39	0.864	5.305	1.024	 H	1	UNK1	0.000	
47	 H40	0.785	5.485	-0.738	 H	1	UNK1	0.000	
48	 H41	5.502	1.818	-0.636	 H	1	UNK1	0.000	
@<TRIPOS>BOND
1 1 2 1
2 1 3 2
3 1 7 1
4 2 4 1
5 2 8 1
6 2 45 1
7 3 5 1
8 3 9 1
9 4 6 1
10 4 10 2
11 5 6 1
12 5 11 2
13 6 12 2
14 7 13 1
15 7 15 2
16 8 14 2
17 8 23 1
18 9 18 1
19 9 21 2
20 10 16 1
21 10 26 1
22 11 17 1
23 11 20 1
24 12 19 1
25 12 22 1
26 13 21 1
27 13 42 1
28 13 43 1
29 14 15 1
30 14 37 1
31 15 38 1
32 16 19 2
33 16 25 1
34 17 22 2
35 17 44 1
36 18 20 2
37 18 40 1
38 19 29 1
39 20 41 1
40 21 39 1
41 22 28 1
42 23 26 2
43 23 32 1
44 24 25 1
45 24 27 2
46 24 36 1
47 25 34 1
48 25 48 1
49 26 27 1
50 27 31 1
51 28 30 1
52 28 46 1
53 28 47 1
54 29 30 2
55 29 33 1
56 30 35 1
@<TRIPOS>SUBSTRUCTURE
1	UNK1	1	GROUP	1 ****	UNK
