# created with PyMOL 2.5.5
@<TRIPOS>MOLECULE
C70H22
92 116 1                
SMALL
USER_CHARGES
@<TRIPOS>ATOM
1	 C01	6.346	9.780	0.000	C.2	1	UNK0	0.000	
2	 C02	7.556	9.190	0.000	C.2	1	UNK0	0.000	
3	 C03	7.651	7.733	0.000	C.2	1	UNK0	0.000	
4	 C04	8.846	7.108	0.000	C.2	1	UNK0	0.000	
5	 C05	8.911	5.637	0.000	C.2	1	UNK0	0.000	
6	 C06	10.133	4.948	0.000	C.2	1	UNK0	0.000	
7	 C07	10.154	3.544	0.000	C.2	1	UNK0	0.000	
8	 C08	8.942	2.823	0.000	C.2	1	UNK0	0.000	
9	 C09	8.940	1.426	0.000	C.2	1	UNK0	0.000	
10	 C10	7.730	0.715	0.000	C.2	1	UNK0	0.000	
11	 C11	7.705	-0.688	0.000	C.2	1	UNK0	0.000	
12	 C12	8.924	-1.398	0.000	C.2	1	UNK0	0.000	
13	 C13	10.138	-0.690	0.000	C.2	1	UNK0	0.000	
14	 C14	10.146	0.716	0.000	C.2	1	UNK0	0.000	
15	 C15	11.447	1.440	0.000	C.2	1	UNK0	0.000	
16	 C16	11.428	2.790	0.000	C.2	1	UNK0	0.000	
17	 C17	12.694	0.680	0.000	C.2	1	UNK0	0.000	
18	 C18	12.689	-0.666	0.000	C.2	1	UNK0	0.000	
19	 C19	11.436	-1.418	0.000	C.2	1	UNK0	0.000	
20	 C20	11.413	-2.766	0.000	C.2	1	UNK0	0.000	
21	 C21	10.138	-3.516	0.000	C.2	1	UNK0	0.000	
22	 C22	8.924	-2.803	0.000	C.2	1	UNK0	0.000	
23	 C23	7.698	-3.501	0.000	C.2	1	UNK0	0.000	
24	 C24	7.691	-4.906	0.000	C.2	1	UNK0	0.000	
25	 C25	8.904	-5.625	0.000	C.2	1	UNK0	0.000	
26	 C26	10.121	-4.917	0.000	C.2	1	UNK0	0.000	
27	 C27	8.856	-7.031	0.000	C.2	1	UNK0	0.000	
28	 C28	7.632	-7.729	0.000	C.2	1	UNK0	0.000	
29	 C29	7.582	-9.131	0.000	C.2	1	UNK0	0.000	
30	 C30	6.357	-9.803	0.000	C.2	1	UNK0	0.000	
31	 C31	5.162	-9.085	0.000	C.2	1	UNK0	0.000	
32	 C32	5.183	-7.687	0.000	C.2	1	UNK0	0.000	
33	 C33	6.421	-7.003	0.000	C.2	1	UNK0	0.000	
34	 C34	6.468	-5.598	0.000	C.2	1	UNK0	0.000	
35	 C35	5.183	-4.854	0.000	C.2	1	UNK0	0.000	
36	 C36	5.188	-3.499	0.000	C.2	1	UNK0	0.000	
37	 C37	6.487	-2.784	0.000	C.2	1	UNK0	0.000	
38	 C38	6.485	-1.384	0.000	C.2	1	UNK0	0.000	
39	 C39	5.180	-0.665	0.000	C.2	1	UNK0	0.000	
40	 C40	5.167	0.692	0.000	C.2	1	UNK0	0.000	
41	 C41	6.437	1.433	0.000	C.2	1	UNK0	0.000	
42	 C42	6.431	2.785	0.000	C.2	1	UNK0	0.000	
43	 C43	7.723	3.515	0.000	C.2	1	UNK0	0.000	
44	 C44	7.707	4.913	0.000	C.2	1	UNK0	0.000	
45	 C45	6.401	5.604	0.000	C.2	1	UNK0	0.000	
46	 C46	6.393	6.956	0.000	C.2	1	UNK0	0.000	
47	 C47	5.089	7.661	0.000	C.2	1	UNK0	0.000	
48	 C48	5.106	9.012	0.000	C.2	1	UNK0	0.000	
49	 C49	3.829	6.915	0.000	C.2	1	UNK0	0.000	
50	 C50	3.822	5.564	0.000	C.2	1	UNK0	0.000	
51	 C51	5.126	4.858	0.000	C.2	1	UNK0	0.000	
52	 C52	5.140	3.499	0.000	C.2	1	UNK0	0.000	
53	 C53	3.855	2.761	0.000	C.2	1	UNK0	0.000	
54	 C54	3.869	1.401	0.000	C.2	1	UNK0	0.000	
55	 C55	2.586	0.667	0.000	C.2	1	UNK0	0.000	
56	 C56	2.600	-0.693	0.000	C.2	1	UNK0	0.000	
57	 C57	3.901	-1.406	0.000	C.2	1	UNK0	0.000	
58	 C58	3.904	-2.767	0.000	C.2	1	UNK0	0.000	
59	 C59	2.609	-3.493	0.000	C.2	1	UNK0	0.000	
60	 C60	2.633	-4.844	0.000	C.2	1	UNK0	0.000	
61	 C61	3.900	-5.577	0.000	C.2	1	UNK0	0.000	
62	 C62	3.914	-6.926	0.000	C.2	1	UNK0	0.000	
63	 C63	1.338	-2.772	0.000	C.2	1	UNK0	0.000	
64	 C64	1.309	-1.424	0.000	C.2	1	UNK0	0.000	
65	 C65	0.038	-0.705	0.000	C.2	1	UNK0	0.000	
66	 C66	0.026	0.639	0.000	C.2	1	UNK0	0.000	
67	 C67	1.284	1.379	0.000	C.2	1	UNK0	0.000	
68	 C68	1.293	2.729	0.000	C.2	1	UNK0	0.000	
69	 C69	2.554	3.469	0.000	C.2	1	UNK0	0.000	
70	   C	2.563	4.820	0.000	C.2	1	UNK0	0.000	
71	 H70	6.261	10.862	0.000	 H	1	UNK0	0.000	
72	 H71	8.463	9.784	0.000	 H	1	UNK0	0.000	
73	 H72	9.781	7.658	0.000	 H	1	UNK0	0.000	
74	 H73	11.067	5.504	0.000	 H	1	UNK0	0.000	
75	 H74	12.347	3.367	0.000	 H	1	UNK0	0.000	
76	 H75	13.635	1.222	0.000	 H	1	UNK0	0.000	
77	 H76	13.626	-1.214	0.000	 H	1	UNK0	0.000	
78	 H77	12.330	-3.347	0.000	 H	1	UNK0	0.000	
79	 H78	11.060	-5.465	0.000	 H	1	UNK0	0.000	
80	 H79	9.788	-7.595	0.000	 H	1	UNK0	0.000	
81	 H80	8.500	-9.715	0.000	 H	1	UNK0	0.000	
82	 H81	6.337	-10.890	0.000	 H	1	UNK0	0.000	
83	 H82	4.219	-9.626	0.000	 H	1	UNK0	0.000	
84	 H83	4.186	9.589	0.000	 H	1	UNK0	0.000	
85	 H84	2.904	7.483	0.000	 H	1	UNK0	0.000	
86	 H85	1.714	-5.421	0.000	 H	1	UNK0	0.000	
87	 H86	2.994	-7.500	0.000	 H	1	UNK0	0.000	
88	 H87	0.421	-3.354	0.000	 H	1	UNK0	0.000	
89	 H88	-0.892	-1.265	0.000	 H	1	UNK0	0.000	
90	 H89	-0.912	1.184	0.000	 H	1	UNK0	0.000	
91	 H90	0.368	3.296	0.000	 H	1	UNK0	0.000	
92	   H	1.637	5.387	0.000	 H	1	UNK0	0.000	
@<TRIPOS>BOND
1 1 2 ar
2 1 48 ar
3 1 71 1
4 2 3 ar
5 2 72 1
6 3 4 ar
7 3 46 ar
8 4 5 ar
9 4 73 1
10 5 6 ar
11 5 44 ar
12 6 7 ar
13 6 74 1
14 7 8 ar
15 7 16 ar
16 8 9 ar
17 8 43 ar
18 9 10 ar
19 9 14 ar
20 10 11 ar
21 10 41 ar
22 11 12 ar
23 11 38 ar
24 12 13 ar
25 12 22 ar
26 13 14 ar
27 13 19 ar
28 14 15 ar
29 15 16 ar
30 15 17 ar
31 16 75 1
32 17 18 ar
33 17 76 1
34 18 19 ar
35 18 77 1
36 19 20 ar
37 20 21 ar
38 20 78 1
39 21 22 ar
40 21 26 ar
41 22 23 ar
42 23 24 ar
43 23 37 ar
44 24 25 ar
45 24 34 ar
46 25 26 ar
47 25 27 ar
48 26 79 1
49 27 28 ar
50 27 80 1
51 28 29 ar
52 28 33 ar
53 29 30 ar
54 29 81 1
55 30 31 ar
56 30 82 1
57 31 32 ar
58 31 83 1
59 32 33 ar
60 32 62 ar
61 33 34 ar
62 34 35 ar
63 35 36 ar
64 35 61 ar
65 36 37 ar
66 36 58 ar
67 37 38 ar
68 38 39 ar
69 39 40 ar
70 39 57 ar
71 40 41 ar
72 40 54 ar
73 41 42 ar
74 42 43 ar
75 42 52 ar
76 43 44 ar
77 44 45 ar
78 45 46 ar
79 45 51 ar
80 46 47 ar
81 47 48 ar
82 47 49 ar
83 48 84 1
84 49 50 ar
85 49 85 1
86 50 51 ar
87 50 70 ar
88 51 52 ar
89 52 53 ar
90 53 54 ar
91 53 69 ar
92 54 55 ar
93 55 56 ar
94 55 67 ar
95 56 57 ar
96 56 64 ar
97 57 58 ar
98 58 59 ar
99 59 60 ar
100 59 63 ar
101 60 61 ar
102 60 86 1
103 61 62 ar
104 62 87 1
105 63 64 ar
106 63 88 1
107 64 65 ar
108 65 66 ar
109 65 89 1
110 66 67 ar
111 66 90 1
112 67 68 ar
113 68 69 ar
114 68 91 1
115 69 70 ar
116 70 92 1
@<TRIPOS>SUBSTRUCTURE
1	UNK0	1	GROUP	1 ****	UNK
