# created with PyMOL 2.5.5
@<TRIPOS>MOLECULE
242
32 36 1                 
SMALL
USER_CHARGES
@<TRIPOS>ATOM
1	 C01	0.301	-0.219	0.000	C.2	1	UNK1	0.000	
2	 C02	1.691	0.051	0.000	C.2	1	UNK1	0.000	
3	 C03	-0.641	0.848	0.000	C.2	1	UNK1	0.000	
4	 C04	-0.137	-1.562	0.000	C.2	1	UNK1	0.000	
5	 C05	-2.037	0.543	0.000	C.2	1	UNK1	0.000	
6	 C06	2.152	1.384	0.000	C.2	1	UNK1	0.000	
7	 C07	2.624	-1.012	0.000	C.2	1	UNK1	0.000	
8	 C08	-2.449	-0.820	0.000	C.2	1	UNK1	0.000	
9	 C09	-1.503	-1.849	0.000	C.2	1	UNK1	0.000	
10	 C10	-0.142	2.173	0.000	C.2	1	UNK1	0.000	
11	 C11	0.799	-2.608	0.000	C.2	1	UNK1	0.000	
12	 C12	1.230	2.432	0.000	C.2	1	UNK1	0.000	
13	 C13	2.168	-2.336	0.000	C.2	1	UNK1	0.000	
14	 C14	3.531	1.646	0.000	C.2	1	UNK1	0.000	
15	 C15	3.999	-0.732	0.000	C.2	1	UNK1	0.000	
16	 C16	-3.046	1.539	0.000	C.2	1	UNK1	0.000	
17	 C17	-3.816	-1.148	0.000	C.2	1	UNK1	0.000	
18	 C18	4.447	0.591	0.000	C.2	1	UNK1	0.000	
19	 C19	-4.399	1.191	0.000	C.2	1	UNK1	0.000	
20	 C20	-4.782	-0.146	0.000	C.2	1	UNK1	0.000	
21	 H21	-1.832	-2.883	0.000	 H	1	UNK1	0.000	
22	 H22	-0.785	3.037	0.000	 H	1	UNK1	0.000	
23	 H23	0.472	-3.641	0.000	 H	1	UNK1	0.000	
24	 H24	1.569	3.462	0.000	 H	1	UNK1	0.000	
25	 H25	2.869	-3.161	0.000	 H	1	UNK1	0.000	
26	 H26	3.900	2.664	0.000	 H	1	UNK1	0.000	
27	 H27	4.727	-1.535	0.000	 H	1	UNK1	0.000	
28	 H28	-2.827	2.593	0.000	 H	1	UNK1	0.000	
29	 H29	-4.137	-2.183	0.000	 H	1	UNK1	0.000	
30	 H30	5.509	0.800	0.000	 H	1	UNK1	0.000	
31	 H31	-5.155	1.967	0.000	 H	1	UNK1	0.000	
32	 H32	-5.833	-0.407	0.000	 H	1	UNK1	0.000	
@<TRIPOS>BOND
1 1 2 ar
2 1 3 ar
3 1 4 ar
4 2 6 ar
5 2 7 ar
6 3 5 ar
7 3 10 ar
8 4 9 ar
9 4 11 ar
10 5 8 ar
11 5 16 ar
12 6 12 ar
13 6 14 ar
14 7 13 ar
15 7 15 ar
16 8 9 ar
17 8 17 ar
18 9 21 1
19 10 12 ar
20 10 22 1
21 11 13 ar
22 11 23 1
23 12 24 1
24 13 25 1
25 14 18 ar
26 14 26 1
27 15 18 ar
28 15 27 1
29 16 19 ar
30 16 28 1
31 17 20 ar
32 17 29 1
33 18 30 1
34 19 20 ar
35 19 31 1
36 20 32 1
@<TRIPOS>SUBSTRUCTURE
1	UNK1	1	GROUP	1 ****	UNK
