# created with PyMOL 2.5.5
@<TRIPOS>MOLECULE
565
58 71 1                 
SMALL
USER_CHARGES
@<TRIPOS>ATOM
1	 C01	-0.705	0.000	0.000	C.2	1	UNK1	0.000	
2	 C02	0.705	-0.000	0.000	C.2	1	UNK1	0.000	
3	 C03	-1.410	-1.222	0.000	C.2	1	UNK1	0.000	
4	 C04	-1.410	1.222	0.000	C.2	1	UNK1	0.000	
5	 C05	1.410	-1.222	0.000	C.2	1	UNK1	0.000	
6	 C06	1.410	1.222	0.000	C.2	1	UNK1	0.000	
7	 C07	-0.706	-2.444	0.000	C.2	1	UNK1	0.000	
8	 C08	-0.706	2.444	0.000	C.2	1	UNK1	0.000	
9	 C09	0.706	-2.444	0.000	C.2	1	UNK1	0.000	
10	 C10	0.706	2.444	0.000	C.2	1	UNK1	0.000	
11	 C11	-2.819	-1.223	0.000	C.2	1	UNK1	0.000	
12	 C12	-2.819	1.223	0.000	C.2	1	UNK1	0.000	
13	 C13	2.819	-1.223	0.000	C.2	1	UNK1	0.000	
14	 C14	2.819	1.223	0.000	C.2	1	UNK1	0.000	
15	 C15	-3.525	0.000	0.000	C.2	1	UNK1	0.000	
16	 C16	3.525	-0.000	0.000	C.2	1	UNK1	0.000	
17	 C17	-1.413	-3.667	0.000	C.2	1	UNK1	0.000	
18	 C18	-1.413	3.667	0.000	C.2	1	UNK1	0.000	
19	 C19	1.413	-3.667	0.000	C.2	1	UNK1	0.000	
20	 C20	1.413	3.667	0.000	C.2	1	UNK1	0.000	
21	 C21	-3.526	-2.447	0.000	C.2	1	UNK1	0.000	
22	 C22	-3.526	2.447	0.000	C.2	1	UNK1	0.000	
23	 C23	3.526	-2.447	0.000	C.2	1	UNK1	0.000	
24	 C24	3.526	2.447	0.000	C.2	1	UNK1	0.000	
25	 C25	-4.936	0.000	0.000	C.2	1	UNK1	0.000	
26	 C26	4.936	-0.000	0.000	C.2	1	UNK1	0.000	
27	 C27	-2.818	-3.660	0.000	C.2	1	UNK1	0.000	
28	 C28	-2.818	3.660	0.000	C.2	1	UNK1	0.000	
29	 C29	2.818	-3.660	0.000	C.2	1	UNK1	0.000	
30	 C30	2.818	3.660	0.000	C.2	1	UNK1	0.000	
31	 C31	0.700	4.876	0.000	C.2	1	UNK1	0.000	
32	 C32	-0.700	4.876	0.000	C.2	1	UNK1	0.000	
33	 C33	-0.700	-4.876	0.000	C.2	1	UNK1	0.000	
34	 C34	0.700	-4.876	0.000	C.2	1	UNK1	0.000	
35	 C35	-4.929	-2.433	0.000	C.2	1	UNK1	0.000	
36	 C36	-4.929	2.433	0.000	C.2	1	UNK1	0.000	
37	 C37	4.929	-2.433	0.000	C.2	1	UNK1	0.000	
38	 C38	4.929	2.433	0.000	C.2	1	UNK1	0.000	
39	 C39	-5.628	-1.221	0.000	C.2	1	UNK1	0.000	
40	 C40	-5.628	1.221	0.000	C.2	1	UNK1	0.000	
41	 C41	5.628	-1.221	0.000	C.2	1	UNK1	0.000	
42	 C42	5.628	1.221	0.000	C.2	1	UNK1	0.000	
43	 H43	-3.360	-4.600	0.000	 H	1	UNK1	0.000	
44	 H44	-3.360	4.600	0.000	 H	1	UNK1	0.000	
45	 H45	3.360	-4.600	0.000	 H	1	UNK1	0.000	
46	 H46	3.360	4.600	0.000	 H	1	UNK1	0.000	
47	 H47	1.225	5.824	0.000	 H	1	UNK1	0.000	
48	 H48	-1.225	5.824	0.000	 H	1	UNK1	0.000	
49	 H49	-1.225	-5.824	0.000	 H	1	UNK1	0.000	
50	 H50	1.225	-5.824	0.000	 H	1	UNK1	0.000	
51	 H51	-5.488	-3.362	0.000	 H	1	UNK1	0.000	
52	 H52	-5.488	3.362	0.000	 H	1	UNK1	0.000	
53	 H53	5.488	-3.362	0.000	 H	1	UNK1	0.000	
54	 H54	5.488	3.362	0.000	 H	1	UNK1	0.000	
55	 H55	-6.712	-1.238	0.000	 H	1	UNK1	0.000	
56	 H56	-6.712	1.238	0.000	 H	1	UNK1	0.000	
57	 H57	6.712	-1.238	0.000	 H	1	UNK1	0.000	
58	 H58	6.712	1.238	0.000	 H	1	UNK1	0.000	
@<TRIPOS>BOND
1 1 2 ar
2 1 3 ar
3 1 4 ar
4 2 5 ar
5 2 6 ar
6 3 7 ar
7 3 11 ar
8 4 8 ar
9 4 12 ar
10 5 9 ar
11 5 13 ar
12 6 10 ar
13 6 14 ar
14 7 9 ar
15 7 17 ar
16 8 10 ar
17 8 18 ar
18 9 19 ar
19 10 20 ar
20 11 15 ar
21 11 21 ar
22 12 15 ar
23 12 22 ar
24 13 16 ar
25 13 23 ar
26 14 16 ar
27 14 24 ar
28 15 25 ar
29 16 26 ar
30 17 27 ar
31 17 33 ar
32 18 28 ar
33 18 32 ar
34 19 29 ar
35 19 34 ar
36 20 30 ar
37 20 31 ar
38 21 27 ar
39 21 35 ar
40 22 28 ar
41 22 36 ar
42 23 29 ar
43 23 37 ar
44 24 30 ar
45 24 38 ar
46 25 39 ar
47 25 40 ar
48 26 41 ar
49 26 42 ar
50 27 43 1
51 28 44 1
52 29 45 1
53 30 46 1
54 31 32 ar
55 31 47 1
56 32 48 1
57 33 34 ar
58 33 49 1
59 34 50 1
60 35 39 ar
61 35 51 1
62 36 40 ar
63 36 52 1
64 37 41 ar
65 37 53 1
66 38 42 ar
67 38 54 1
68 39 55 1
69 40 56 1
70 41 57 1
71 42 58 1
@<TRIPOS>SUBSTRUCTURE
1	UNK1	1	GROUP	1 ****	UNK
