# created with PyMOL 2.5.5
@<TRIPOS>MOLECULE
full_87
361 429 1               
SMALL
USER_CHARGES
@<TRIPOS>ATOM
1	 C02	46.607	35.325	24.105	C.3	1	UNK1	0.000	
2	 C03	47.821	36.654	22.302	C.3	1	UNK1	0.000	
3	 C05	47.216	36.688	23.723	C.3	1	UNK1	0.000	
4	 C06	49.258	36.114	22.231	C.3	1	UNK1	0.000	
5	 C07	54.279	33.217	24.524	C.3	1	UNK1	0.000	
6	 C08	52.207	32.811	23.566	C.3	1	UNK1	0.000	
7	 C09	52.186	35.273	22.842	C.3	1	UNK1	0.000	
8	 C11	53.236	32.123	24.462	C.3	1	UNK1	0.000	
9	 C15	55.468	33.063	25.442	C.3	1	UNK1	0.000	
10	 C16	45.647	33.934	32.036	C.3	1	UNK1	0.000	
11	 C17	47.231	32.680	33.763	C.3	1	UNK1	0.000	
12	 C18	45.921	32.720	32.956	C.3	1	UNK1	0.000	
13	 C19	48.434	33.449	33.233	C.3	1	UNK1	0.000	
14	 C20	46.916	34.412	31.264	C.3	1	UNK1	0.000	
15	 C21	50.517	36.645	25.860	C.3	1	UNK1	0.000	
16	 C22	46.780	35.854	30.757	C.3	1	UNK1	0.000	
17	 C23	47.924	36.337	29.828	C.3	1	UNK1	0.000	
18	 C24	46.378	35.152	25.610	C.3	1	UNK1	0.000	
19	 C25	47.587	36.123	28.323	C.3	1	UNK1	0.000	
20	 C27	46.156	36.392	27.851	C.3	1	UNK1	0.000	
21	 C28	47.582	37.301	26.168	C.3	1	UNK1	0.000	
22	 C29	46.290	36.496	26.336	C.3	1	UNK1	0.000	
23	 C30	48.452	37.039	27.414	C.3	1	UNK1	0.000	
24	 C31	48.219	37.198	24.791	C.3	1	UNK1	0.000	
25	 C32	49.535	36.404	24.701	C.3	1	UNK1	0.000	
26	 C33	46.447	36.870	31.859	C.3	1	UNK1	0.000	
27	 C34	48.301	34.031	31.823	C.3	1	UNK1	0.000	
28	 C35	49.439	35.009	31.489	C.3	1	UNK1	0.000	
29	 C36	50.537	36.555	29.816	C.3	1	UNK1	0.000	
30	 C37	50.874	36.924	28.335	C.3	1	UNK1	0.000	
31	 C38	49.299	35.651	30.092	C.3	1	UNK1	0.000	
32	 C39	49.869	36.462	27.241	C.3	1	UNK1	0.000	
33	 C40	50.629	37.659	30.846	C.2	1	UNK1	0.000	
34	 C41	52.216	34.304	24.001	C.3	1	UNK1	0.000	
35	 C42	50.116	36.782	23.311	C.3	1	UNK1	0.000	
36	 C43	55.783	35.443	24.449	C.3	1	UNK1	0.000	
37	 C44	53.448	34.464	24.904	C.3	1	UNK1	0.000	
38	 C45	52.321	37.496	24.329	C.3	1	UNK1	0.000	
39	 C46	51.645	36.670	23.179	C.3	1	UNK1	0.000	
40	 C47	54.331	35.749	25.014	C.3	1	UNK1	0.000	
41	 C48	53.803	37.156	24.616	C.3	1	UNK1	0.000	
42	 C49	51.398	37.858	25.557	C.3	1	UNK1	0.000	
43	 C50	54.304	38.226	25.625	C.3	1	UNK1	0.000	
44	 C51	51.827	39.202	29.187	C.3	1	UNK1	0.000	
45	 C52	55.486	40.045	27.699	C.3	1	UNK1	0.000	
46	 C53	54.303	39.017	28.130	C.3	1	UNK1	0.000	
47	 C54	51.248	38.396	28.045	C.3	1	UNK1	0.000	
48	 C55	52.084	38.564	26.762	C.3	1	UNK1	0.000	
49	 C56	53.558	38.207	26.978	C.3	1	UNK1	0.000	
50	 C57	56.126	39.666	26.354	C.3	1	UNK1	0.000	
51	 C58	55.794	38.218	25.930	C.3	1	UNK1	0.000	
52	 C59	56.731	37.979	24.774	C.3	1	UNK1	0.000	
53	 C60	56.743	36.620	24.053	C.3	1	UNK1	0.000	
54	 C61	58.048	38.560	25.295	C.3	1	UNK1	0.000	
55	 C62	56.393	34.291	25.297	C.3	1	UNK1	0.000	
56	 C63	58.130	36.213	23.498	C.3	1	UNK1	0.000	
57	 C64	59.296	35.874	24.431	C.3	1	UNK1	0.000	
58	 C65	59.163	36.246	25.905	C.3	1	UNK1	0.000	
59	 C66	63.735	32.578	29.336	C.3	1	UNK1	0.000	
60	 C68	64.464	32.691	30.742	C.3	1	UNK1	0.000	
61	 C69	43.521	34.833	33.364	C.3	1	UNK1	0.000	
62	 C70	42.687	33.605	33.029	C.3	1	UNK1	0.000	
63	 C71	44.714	35.108	32.449	C.3	1	UNK1	0.000	
64	 C72	43.385	32.245	33.032	C.3	1	UNK1	0.000	
65	 C73	45.518	36.315	32.941	C.3	1	UNK1	0.000	
66	 C74	44.661	32.512	35.250	C.3	1	UNK1	0.000	
67	 C75	44.731	32.133	33.758	C.3	1	UNK1	0.000	
68	 C76	45.773	33.460	35.706	C.3	1	UNK1	0.000	
69	 C77	51.276	38.865	30.552	C.2	1	UNK1	0.000	
70	 C78	49.896	35.958	32.615	C.3	1	UNK1	0.000	
71	 C79	53.356	39.379	29.355	C.3	1	UNK1	0.000	
72	 C80	56.606	40.395	28.794	C.3	1	UNK1	0.000	
73	 C81	57.621	39.864	26.056	C.3	1	UNK1	0.000	
74	 C82	57.995	39.714	28.573	C.3	1	UNK1	0.000	
75	 C83	61.626	36.350	26.468	C.3	1	UNK1	0.000	
76	 C84	62.899	35.875	27.194	C.3	1	UNK1	0.000	
77	 C85	60.306	35.669	26.784	C.3	1	UNK1	0.000	
78	 C86	58.991	37.731	26.195	C.3	1	UNK1	0.000	
79	 C87	61.570	37.878	26.705	C.3	1	UNK1	0.000	
80	 C89	59.992	39.992	26.784	C.3	1	UNK1	0.000	
81	 C90	62.275	38.151	28.044	C.3	1	UNK1	0.000	
82	 C91	61.816	39.124	29.169	C.3	1	UNK1	0.000	
83	 C92	58.545	40.270	27.227	C.3	1	UNK1	0.000	
84	 C93	63.188	36.910	28.306	C.3	1	UNK1	0.000	
85	 C94	60.282	38.569	26.256	C.3	1	UNK1	0.000	
86	 C95	63.090	34.357	27.498	C.3	1	UNK1	0.000	
87	 C96	62.959	33.913	28.967	C.3	1	UNK1	0.000	
88	 C97	66.349	31.751	32.189	C.3	1	UNK1	0.000	
89	 C99	65.129	31.439	31.283	C.3	1	UNK1	0.000	
90	C100	63.557	34.977	29.842	C.3	1	UNK1	0.000	
91	C101	64.139	37.003	30.724	C.3	1	UNK1	0.000	
92	C102	63.401	33.008	33.193	C.3	1	UNK1	0.000	
93	C103	63.883	35.222	34.422	C.3	1	UNK1	0.000	
94	C104	64.164	35.973	31.936	C.3	1	UNK1	0.000	
95	C105	63.114	36.387	29.706	C.3	1	UNK1	0.000	
96	C106	64.275	33.746	34.183	C.3	1	UNK1	0.000	
97	C107	63.310	34.802	31.341	C.3	1	UNK1	0.000	
98	C108	63.455	33.337	31.712	C.3	1	UNK1	0.000	
99	C113	65.759	33.319	34.219	C.3	1	UNK1	0.000	
100	C115	66.513	33.132	32.888	C.3	1	UNK1	0.000	
101	C117	47.135	32.948	35.263	C.3	1	UNK1	0.000	
102	C118	49.009	34.341	34.358	C.3	1	UNK1	0.000	
103	C119	64.755	35.853	35.504	C.3	1	UNK1	0.000	
104	C120	65.635	38.205	42.174	C.3	1	UNK1	0.000	
105	C121	47.007	34.262	37.794	C.3	1	UNK1	0.000	
106	C122	45.717	33.678	37.223	C.3	1	UNK1	0.000	
107	C123	47.903	34.888	36.727	C.3	1	UNK1	0.000	
108	C124	48.305	33.867	35.659	C.3	1	UNK1	0.000	
109	C125	50.238	37.383	32.183	C.2	1	UNK1	0.000	
110	C126	51.064	39.551	32.867	C.2	1	UNK1	0.000	
111	C127	49.914	38.152	34.580	C.3	1	UNK1	0.000	
112	C128	50.399	38.365	33.175	C.2	1	UNK1	0.000	
113	C129	49.907	36.683	34.989	C.3	1	UNK1	0.000	
114	C130	51.591	39.753	31.591	C.2	1	UNK1	0.000	
115	C131	49.131	35.829	33.967	C.3	1	UNK1	0.000	
116	C132	56.175	41.372	32.358	C.3	1	UNK1	0.000	
117	C134	56.826	40.294	31.421	C.3	1	UNK1	0.000	
118	C135	55.288	42.215	31.447	C.3	1	UNK1	0.000	
119	C136	52.637	40.829	31.405	C.3	1	UNK1	0.000	
120	C137	54.903	41.321	30.272	C.3	1	UNK1	0.000	
121	C138	57.093	42.262	33.236	C.3	1	UNK1	0.000	
122	C139	55.982	40.235	30.170	C.3	1	UNK1	0.000	
123	C140	53.481	40.773	30.095	C.3	1	UNK1	0.000	
124	C141	61.128	40.836	30.689	C.3	1	UNK1	0.000	
125	C142	60.476	39.562	29.992	C.3	1	UNK1	0.000	
126	C143	62.658	39.008	30.448	C.3	1	UNK1	0.000	
127	C144	60.413	41.713	31.679	C.3	1	UNK1	0.000	
128	C145	62.249	42.097	33.473	C.3	1	UNK1	0.000	
129	C146	58.501	41.732	33.184	C.3	1	UNK1	0.000	
130	C147	62.551	40.399	31.081	C.3	1	UNK1	0.000	
131	C148	63.023	39.951	32.450	C.3	1	UNK1	0.000	
132	C149	59.677	42.478	33.831	C.3	1	UNK1	0.000	
133	C150	60.806	41.646	33.151	C.3	1	UNK1	0.000	
134	C151	58.906	41.581	31.678	C.3	1	UNK1	0.000	
135	C152	62.226	42.891	34.751	C.3	1	UNK1	0.000	
136	C153	63.128	40.863	33.661	C.3	1	UNK1	0.000	
137	C154	58.337	40.261	31.192	C.3	1	UNK1	0.000	
138	C155	58.907	39.636	29.846	C.3	1	UNK1	0.000	
139	C156	64.038	37.660	34.021	C.3	1	UNK1	0.000	
140	C157	64.053	38.516	30.760	C.3	1	UNK1	0.000	
141	C158	67.244	38.581	37.876	C.3	1	UNK1	0.000	
142	C159	64.371	37.312	35.469	C.3	1	UNK1	0.000	
143	C160	64.363	39.262	32.068	C.3	1	UNK1	0.000	
144	C161	65.258	38.262	36.249	C.3	1	UNK1	0.000	
145	C162	65.962	39.417	35.552	C.3	1	UNK1	0.000	
146	C163	64.993	38.626	33.300	C.3	1	UNK1	0.000	
147	C164	64.567	41.151	34.090	C.3	1	UNK1	0.000	
148	C165	66.212	40.564	36.578	C.3	1	UNK1	0.000	
149	C166	65.450	39.855	34.186	C.3	1	UNK1	0.000	
150	C167	66.235	37.556	37.250	C.3	1	UNK1	0.000	
151	C168	64.714	42.189	35.224	C.3	1	UNK1	0.000	
152	C169	63.650	36.321	33.327	C.3	1	UNK1	0.000	
153	C170	66.705	40.033	37.964	C.3	1	UNK1	0.000	
154	C171	66.252	35.653	35.371	C.3	1	UNK1	0.000	
155	C172	66.930	36.261	36.652	C.3	1	UNK1	0.000	
156	C173	66.563	34.141	35.259	C.3	1	UNK1	0.000	
157	C175	69.278	36.357	37.768	C.3	1	UNK1	0.000	
158	C176	68.453	36.391	36.466	C.3	1	UNK1	0.000	
159	C177	68.559	36.661	39.109	C.3	1	UNK1	0.000	
160	C178	68.018	38.123	39.161	C.3	1	UNK1	0.000	
161	C180	66.284	39.588	40.424	C.3	1	UNK1	0.000	
162	C181	63.394	40.854	38.323	C.3	1	UNK1	0.000	
163	C182	63.934	39.557	40.548	C.3	1	UNK1	0.000	
164	C184	64.311	39.898	39.080	C.3	1	UNK1	0.000	
165	C185	65.136	38.685	40.844	C.3	1	UNK1	0.000	
166	C186	65.807	40.278	39.162	C.3	1	UNK1	0.000	
167	C187	64.083	42.029	37.630	C.3	1	UNK1	0.000	
168	C188	68.709	34.279	41.321	C.3	1	UNK1	0.000	
169	C189	68.655	35.804	41.526	C.3	1	UNK1	0.000	
170	C190	67.218	36.291	41.684	C.3	1	UNK1	0.000	
171	C191	67.492	38.677	40.530	C.3	1	UNK1	0.000	
172	C192	67.107	37.805	41.796	C.3	1	UNK1	0.000	
173	C194	59.475	43.733	36.128	C.3	1	UNK1	0.000	
174	C195	60.732	44.171	36.918	C.3	1	UNK1	0.000	
175	C196	61.604	42.914	37.052	C.3	1	UNK1	0.000	
176	C197	61.294	42.203	35.759	C.3	1	UNK1	0.000	
177	C199	59.827	42.432	35.377	C.3	1	UNK1	0.000	
178	C200	63.147	43.104	36.988	C.3	1	UNK1	0.000	
179	C201	63.530	43.135	35.485	C.3	1	UNK1	0.000	
180	C202	65.233	41.770	36.603	C.3	1	UNK1	0.000	
181	C203	69.898	34.013	40.404	C.3	1	UNK1	0.000	
182	C205	69.463	36.398	40.356	C.3	1	UNK1	0.000	
183	C206	70.585	35.358	40.238	C.3	1	UNK1	0.000	
184	 H01	55.872	43.059	31.054	 H	1	UNK1	0.000	
185	 H07	55.141	32.967	26.485	 H	1	UNK1	0.000	
186	 H08	51.585	34.851	22.028	 H	1	UNK1	0.000	
187	 H13	66.348	33.686	36.238	 H	1	UNK1	0.000	
188	 H14	64.488	32.348	28.572	 H	1	UNK1	0.000	
189	 H15	67.587	33.191	33.112	 H	1	UNK1	0.000	
190	 H16	61.253	44.971	36.380	 H	1	UNK1	0.000	
191	 H17	60.463	44.576	37.900	 H	1	UNK1	0.000	
192	 H18	58.657	43.534	36.831	 H	1	UNK1	0.000	
193	 H19	59.136	44.533	35.462	 H	1	UNK1	0.000	
194	 H20	61.262	42.352	37.924	 H	1	UNK1	0.000	
195	 H21	63.395	44.074	37.441	 H	1	UNK1	0.000	
196	 H22	67.794	33.890	40.861	 H	1	UNK1	0.000	
197	 H23	68.829	33.768	42.283	 H	1	UNK1	0.000	
198	 H24	71.183	35.426	39.326	 H	1	UNK1	0.000	
199	 H25	69.544	33.636	39.438	 H	1	UNK1	0.000	
200	 H26	60.196	36.333	24.004	 H	1	UNK1	0.000	
201	 H27	67.231	31.647	31.540	 H	1	UNK1	0.000	
202	 H28	64.413	30.800	31.810	 H	1	UNK1	0.000	
203	 H29	62.361	33.190	33.510	 H	1	UNK1	0.000	
204	 H30	64.113	34.111	27.177	 H	1	UNK1	0.000	
205	 H31	69.671	35.336	37.816	 H	1	UNK1	0.000	
206	 H32	51.268	40.276	33.653	 H	1	UNK1	0.000	
207	 H33	56.612	34.649	26.307	 H	1	UNK1	0.000	
208	 H34	43.682	32.926	35.518	 H	1	UNK1	0.000	
209	 H35	66.820	35.839	42.604	 H	1	UNK1	0.000	
210	 H36	60.680	40.359	27.526	 H	1	UNK1	0.000	
211	 H37	60.436	38.809	30.795	 H	1	UNK1	0.000	
212	 H38	62.143	40.072	28.710	 H	1	UNK1	0.000	
213	 H02	57.075	43.307	32.905	 H	1	UNK1	0.000	
214	 H03	45.785	37.338	28.265	 H	1	UNK1	0.000	
215	 H04	45.459	35.593	28.124	 H	1	UNK1	0.000	
216	 H05	45.431	37.050	25.937	 H	1	UNK1	0.000	
217	 H06	47.200	34.549	26.013	 H	1	UNK1	0.000	
218	 H09	62.990	39.009	40.620	 H	1	UNK1	0.000	
219	 H10	65.637	39.008	42.920	 H	1	UNK1	0.000	
220	 H11	65.044	37.374	42.571	 H	1	UNK1	0.000	
221	 H12	65.068	37.795	40.199	 H	1	UNK1	0.000	
222	H207	44.848	37.119	33.271	 H	1	UNK1	0.000	
223	H208	60.681	40.606	33.492	 H	1	UNK1	0.000	
224	H209	46.092	36.027	33.823	 H	1	UNK1	0.000	
225	H213	61.828	43.884	34.494	 H	1	UNK1	0.000	
226	H216	62.725	40.285	34.501	 H	1	UNK1	0.000	
227	H218	44.932	31.048	33.773	 H	1	UNK1	0.000	
228	H219	58.692	39.530	31.941	 H	1	UNK1	0.000	
229	H220	47.233	34.498	23.748	 H	1	UNK1	0.000	
230	H222	58.687	38.568	30.054	 H	1	UNK1	0.000	
231	H223	45.648	35.217	23.582	 H	1	UNK1	0.000	
232	H225	63.088	38.181	34.153	 H	1	UNK1	0.000	
233	H226	47.834	37.684	21.919	 H	1	UNK1	0.000	
234	H227	50.906	35.577	32.859	 H	1	UNK1	0.000	
235	H228	64.720	38.911	29.979	 H	1	UNK1	0.000	
236	H229	47.177	36.086	21.621	 H	1	UNK1	0.000	
237	H231	68.044	38.707	37.136	 H	1	UNK1	0.000	
238	H233	56.827	41.467	28.669	 H	1	UNK1	0.000	
239	H234	63.399	37.331	35.997	 H	1	UNK1	0.000	
240	H237	65.065	40.046	31.740	 H	1	UNK1	0.000	
241	H238	46.382	37.404	23.687	 H	1	UNK1	0.000	
242	H239	57.689	38.676	28.416	 H	1	UNK1	0.000	
243	H240	64.505	38.790	36.822	 H	1	UNK1	0.000	
244	H241	49.667	36.319	21.235	 H	1	UNK1	0.000	
245	H242	61.817	36.180	25.400	 H	1	UNK1	0.000	
246	H243	66.956	39.013	35.300	 H	1	UNK1	0.000	
247	H244	49.251	35.025	22.360	 H	1	UNK1	0.000	
248	H245	63.686	36.072	26.445	 H	1	UNK1	0.000	
249	H246	65.896	38.073	33.010	 H	1	UNK1	0.000	
250	H247	54.662	33.298	23.496	 H	1	UNK1	0.000	
251	H248	60.374	34.590	26.612	 H	1	UNK1	0.000	
252	H249	64.972	41.691	33.215	 H	1	UNK1	0.000	
253	H250	51.215	32.361	23.677	 H	1	UNK1	0.000	
254	H251	60.062	35.803	27.845	 H	1	UNK1	0.000	
255	H252	67.123	41.021	36.149	 H	1	UNK1	0.000	
256	H253	52.499	32.709	22.513	 H	1	UNK1	0.000	
257	H254	58.594	37.685	27.203	 H	1	UNK1	0.000	
258	H255	66.374	40.196	33.685	 H	1	UNK1	0.000	
259	H257	62.303	38.260	25.968	 H	1	UNK1	0.000	
260	H258	65.600	37.188	38.067	 H	1	UNK1	0.000	
261	H261	65.517	42.842	34.840	 H	1	UNK1	0.000	
262	H263	60.191	40.672	25.940	 H	1	UNK1	0.000	
263	H264	62.556	36.391	33.210	 H	1	UNK1	0.000	
264	H266	63.081	38.813	27.658	 H	1	UNK1	0.000	
265	H267	67.598	40.644	38.183	 H	1	UNK1	0.000	
266	H268	52.819	31.899	25.449	 H	1	UNK1	0.000	
267	H271	53.614	31.197	24.018	 H	1	UNK1	0.000	
268	H272	58.491	41.365	27.315	 H	1	UNK1	0.000	
269	H273	66.780	35.490	37.420	 H	1	UNK1	0.000	
270	H275	64.232	37.222	28.144	 H	1	UNK1	0.000	
271	H278	60.517	38.739	25.190	 H	1	UNK1	0.000	
272	H294	68.693	37.284	35.878	 H	1	UNK1	0.000	
273	H297	68.832	35.574	35.841	 H	1	UNK1	0.000	
274	H298	45.040	33.478	31.233	 H	1	UNK1	0.000	
275	H301	47.530	31.618	33.706	 H	1	UNK1	0.000	
276	H302	64.635	34.963	29.606	 H	1	UNK1	0.000	
277	H304	46.104	31.938	32.195	 H	1	UNK1	0.000	
278	H305	65.145	36.860	30.289	 H	1	UNK1	0.000	
279	H308	63.523	31.930	33.348	 H	1	UNK1	0.000	
280	H310	46.867	33.828	30.327	 H	1	UNK1	0.000	
281	H313	51.239	35.827	25.864	 H	1	UNK1	0.000	
282	H314	65.207	35.663	32.043	 H	1	UNK1	0.000	
283	H315	66.410	40.381	41.182	 H	1	UNK1	0.000	
284	H316	45.865	35.848	30.160	 H	1	UNK1	0.000	
285	H317	62.074	36.473	30.049	 H	1	UNK1	0.000	
286	H318	62.663	41.242	39.042	 H	1	UNK1	0.000	
287	H319	48.022	37.419	29.984	 H	1	UNK1	0.000	
288	H321	62.821	40.283	37.584	 H	1	UNK1	0.000	
289	H322	45.465	34.569	25.777	 H	1	UNK1	0.000	
290	H323	62.252	35.029	31.557	 H	1	UNK1	0.000	
291	H324	63.888	40.451	41.180	 H	1	UNK1	0.000	
292	H326	62.501	32.878	31.394	 H	1	UNK1	0.000	
293	H333	64.197	38.929	38.596	 H	1	UNK1	0.000	
294	H342	65.877	41.350	39.389	 H	1	UNK1	0.000	
295	H345	64.545	42.584	38.461	 H	1	UNK1	0.000	
296	H346	47.260	38.352	26.260	 H	1	UNK1	0.000	
297	H354	69.197	36.033	42.455	 H	1	UNK1	0.000	
298	H361	45.941	37.722	31.382	 H	1	UNK1	0.000	
299	H364	47.341	37.304	32.308	 H	1	UNK1	0.000	
300	H367	48.540	33.149	31.198	 H	1	UNK1	0.000	
301	H370	50.309	34.336	31.372	 H	1	UNK1	0.000	
302	H371	47.292	31.989	35.781	 H	1	UNK1	0.000	
303	H377	64.446	35.426	36.471	 H	1	UNK1	0.000	
304	H379	49.384	34.792	29.411	 H	1	UNK1	0.000	
305	H382	49.779	35.371	27.339	 H	1	UNK1	0.000	
306	H388	51.305	34.398	24.587	 H	1	UNK1	0.000	
307	H389	47.566	33.464	38.301	 H	1	UNK1	0.000	
308	H390	61.493	41.133	35.867	 H	1	UNK1	0.000	
309	H391	49.953	37.862	23.160	 H	1	UNK1	0.000	
310	H392	46.767	35.003	38.564	 H	1	UNK1	0.000	
311	H394	55.609	35.009	23.454	 H	1	UNK1	0.000	
312	H395	45.499	32.738	37.747	 H	1	UNK1	0.000	
313	H397	53.071	34.297	25.928	 H	1	UNK1	0.000	
314	H398	44.880	34.350	37.451	 H	1	UNK1	0.000	
315	H399	59.214	41.620	35.787	 H	1	UNK1	0.000	
316	H400	52.403	38.493	23.856	 H	1	UNK1	0.000	
317	H401	48.799	35.254	37.238	 H	1	UNK1	0.000	
318	H404	47.387	35.744	36.278	 H	1	UNK1	0.000	
319	H405	63.866	44.153	35.239	 H	1	UNK1	0.000	
320	H406	54.505	35.807	26.096	 H	1	UNK1	0.000	
321	H407	49.035	33.206	36.154	 H	1	UNK1	0.000	
322	H408	65.921	42.593	36.875	 H	1	UNK1	0.000	
323	H409	54.277	37.381	23.653	 H	1	UNK1	0.000	
324	H412	50.702	38.633	25.197	 H	1	UNK1	0.000	
325	H415	54.064	39.187	25.146	 H	1	UNK1	0.000	
326	H418	51.424	40.206	28.967	 H	1	UNK1	0.000	
327	H419	48.900	38.564	34.659	 H	1	UNK1	0.000	
328	H421	54.952	40.988	27.511	 H	1	UNK1	0.000	
329	H422	50.545	38.703	35.288	 H	1	UNK1	0.000	
330	H423	69.928	37.344	40.663	 H	1	UNK1	0.000	
331	H427	50.301	38.909	27.826	 H	1	UNK1	0.000	
332	H428	49.473	36.648	35.984	 H	1	UNK1	0.000	
333	H430	52.081	39.639	26.519	 H	1	UNK1	0.000	
334	H431	50.937	36.315	35.085	 H	1	UNK1	0.000	
335	H432	53.567	37.170	27.336	 H	1	UNK1	0.000	
336	H435	48.133	36.247	33.885	 H	1	UNK1	0.000	
337	H436	56.043	37.506	26.728	 H	1	UNK1	0.000	
338	H438	56.418	38.692	23.989	 H	1	UNK1	0.000	
339	H440	56.265	36.911	23.098	 H	1	UNK1	0.000	
340	H442	58.610	38.868	24.400	 H	1	UNK1	0.000	
341	H445	56.628	39.347	31.954	 H	1	UNK1	0.000	
342	H448	58.471	37.033	22.848	 H	1	UNK1	0.000	
343	H450	57.996	35.370	22.806	 H	1	UNK1	0.000	
344	H451	53.315	40.717	32.259	 H	1	UNK1	0.000	
345	H453	52.158	41.812	31.490	 H	1	UNK1	0.000	
346	H455	54.990	42.019	29.426	 H	1	UNK1	0.000	
347	H457	56.727	42.265	34.269	 H	1	UNK1	0.000	
348	H459	55.578	39.226	30.233	 H	1	UNK1	0.000	
349	H461	52.995	41.501	29.424	 H	1	UNK1	0.000	
350	H467	62.098	38.281	31.059	 H	1	UNK1	0.000	
351	H468	43.810	34.830	34.413	 H	1	UNK1	0.000	
352	H470	42.846	35.700	33.293	 H	1	UNK1	0.000	
353	H471	62.656	42.725	32.670	 H	1	UNK1	0.000	
354	H472	42.209	33.749	32.051	 H	1	UNK1	0.000	
355	H474	41.860	33.564	33.750	 H	1	UNK1	0.000	
356	H475	63.266	41.109	30.643	 H	1	UNK1	0.000	
357	H476	44.231	35.438	31.515	 H	1	UNK1	0.000	
358	H477	62.282	39.203	32.768	 H	1	UNK1	0.000	
359	H478	43.514	31.912	31.993	 H	1	UNK1	0.000	
360	H479	59.702	43.517	33.476	 H	1	UNK1	0.000	
361	H480	42.690	31.515	33.470	 H	1	UNK1	0.000	
@<TRIPOS>BOND
1 1 3 1
2 1 18 1
3 1 229 1
4 1 231 1
5 2 3 1
6 2 4 1
7 2 233 1
8 2 236 1
9 3 24 1
10 3 241 1
11 4 35 1
12 4 244 1
13 4 247 1
14 5 8 1
15 5 9 1
16 5 37 1
17 5 250 1
18 6 8 1
19 6 34 1
20 6 253 1
21 6 256 1
22 7 34 1
23 7 39 1
24 7 186 1
25 8 266 1
26 8 267 1
27 9 55 1
28 9 185 1
29 10 12 1
30 10 14 1
31 10 63 1
32 10 274 1
33 11 12 1
34 11 13 1
35 11 101 1
36 11 275 1
37 12 67 1
38 12 277 1
39 13 27 1
40 14 16 1
41 14 27 1
42 14 280 1
43 15 25 1
44 15 32 1
45 15 42 1
46 15 281 1
47 16 17 1
48 16 26 1
49 16 284 1
50 17 19 1
51 17 31 1
52 17 287 1
53 18 22 1
54 18 217 1
55 18 289 1
56 19 20 1
57 19 23 1
58 20 22 1
59 20 214 1
60 20 215 1
61 21 22 1
62 21 23 1
63 21 24 1
64 21 296 1
65 22 216 1
66 23 32 1
67 24 25 1
68 25 35 1
69 26 65 1
70 26 298 1
71 26 299 1
72 27 28 1
73 27 300 1
74 28 31 1
75 28 70 1
76 28 301 1
77 29 30 1
78 29 31 1
79 29 33 1
80 30 32 1
81 30 47 1
82 31 304 1
83 32 305 1
84 33 69 ar
85 33 109 ar
86 34 37 1
87 34 306 1
88 35 39 1
89 35 309 1
90 36 40 1
91 36 53 1
92 36 55 1
93 36 311 1
94 37 40 1
95 37 313 1
96 38 39 1
97 38 41 1
98 38 42 1
99 38 316 1
100 40 41 1
101 40 320 1
102 41 43 1
103 41 323 1
104 42 48 1
105 42 324 1
106 43 49 1
107 43 51 1
108 43 325 1
109 44 47 1
110 44 69 1
111 44 71 1
112 44 326 1
113 45 46 1
114 45 50 1
115 45 72 1
116 45 328 1
117 46 49 1
118 46 71 1
119 47 48 1
120 47 331 1
121 48 49 1
122 48 333 1
123 49 335 1
124 50 51 1
125 50 73 1
126 51 52 1
127 51 337 1
128 52 53 1
129 52 54 1
130 52 338 1
131 53 56 1
132 53 339 1
133 54 73 1
134 54 78 1
135 54 340 1
136 55 207 1
137 56 57 1
138 56 342 1
139 56 343 1
140 57 58 1
141 57 200 1
142 58 77 1
143 58 78 1
144 59 60 1
145 59 87 1
146 59 188 1
147 60 89 1
148 60 98 1
149 61 62 1
150 61 63 1
151 61 351 1
152 61 352 1
153 62 64 1
154 62 354 1
155 62 355 1
156 63 65 1
157 63 357 1
158 64 67 1
159 64 359 1
160 64 361 1
161 65 222 1
162 65 224 1
163 66 67 1
164 66 68 1
165 66 208 1
166 67 227 1
167 68 101 1
168 68 106 1
169 69 114 ar
170 70 109 1
171 70 115 1
172 70 234 1
173 71 123 1
174 72 74 1
175 72 122 1
176 72 238 1
177 73 83 1
178 74 83 1
179 74 138 1
180 74 242 1
181 75 76 1
182 75 77 1
183 75 79 1
184 75 245 1
185 76 84 1
186 76 86 1
187 76 248 1
188 77 251 1
189 77 254 1
190 78 85 1
191 78 257 1
192 79 81 1
193 79 85 1
194 79 259 1
195 80 83 1
196 80 85 1
197 80 210 1
198 80 262 1
199 81 82 1
200 81 84 1
201 81 264 1
202 82 126 1
203 82 212 1
204 83 268 1
205 84 95 1
206 84 270 1
207 85 271 1
208 86 87 1
209 86 204 1
210 87 90 1
211 88 89 1
212 88 201 1
213 89 202 1
214 90 95 1
215 90 97 1
216 90 276 1
217 91 94 1
218 91 95 1
219 91 140 1
220 91 278 1
221 92 96 1
222 92 98 1
223 92 203 1
224 92 279 1
225 93 96 1
226 93 103 1
227 93 152 1
228 94 97 1
229 94 152 1
230 94 282 1
231 95 285 1
232 96 99 1
233 97 98 1
234 97 290 1
235 98 292 1
236 99 100 1
237 99 156 1
238 88 100 1
239 100 189 1
240 101 108 1
241 101 302 1
242 13 102 1
243 102 108 1
244 102 115 1
245 103 142 1
246 103 154 1
247 103 303 1
248 104 165 1
249 104 172 1
250 104 219 1
251 104 220 1
252 105 106 1
253 105 107 1
254 105 307 1
255 105 310 1
256 106 312 1
257 106 314 1
258 107 108 1
259 107 317 1
260 107 318 1
261 108 321 1
262 109 112 ar
263 110 112 ar
264 110 114 ar
265 110 206 1
266 111 112 1
267 111 113 1
268 111 327 1
269 111 329 1
270 113 115 1
271 113 332 1
272 113 334 1
273 114 119 1
274 115 336 1
275 116 117 1
276 116 118 1
277 116 121 1
278 117 122 1
279 117 137 1
280 117 341 1
281 118 120 1
282 118 184 1
283 119 123 1
284 119 344 1
285 119 345 1
286 120 122 1
287 120 123 1
288 120 346 1
289 121 129 1
290 121 213 1
291 121 347 1
292 122 348 1
293 123 349 1
294 124 125 1
295 124 127 1
296 124 130 1
297 82 125 1
298 125 138 1
299 125 211 1
300 126 130 1
301 126 140 1
302 126 350 1
303 127 133 1
304 127 134 1
305 128 133 1
306 128 135 1
307 128 136 1
308 128 353 1
309 129 132 1
310 129 134 1
311 130 131 1
312 130 356 1
313 131 136 1
314 131 143 1
315 131 358 1
316 132 133 1
317 132 177 1
318 132 360 1
319 133 223 1
320 134 137 1
321 135 176 1
322 135 179 1
323 135 225 1
324 136 147 1
325 136 226 1
326 137 138 1
327 137 228 1
328 138 230 1
329 139 142 1
330 139 146 1
331 139 152 1
332 139 232 1
333 140 143 1
334 140 235 1
335 141 150 1
336 141 153 1
337 141 160 1
338 141 237 1
339 142 144 1
340 142 239 1
341 143 146 1
342 143 240 1
343 144 145 1
344 144 150 1
345 144 243 1
346 145 148 1
347 145 149 1
348 145 246 1
349 146 149 1
350 146 249 1
351 147 149 1
352 147 151 1
353 147 252 1
354 148 153 1
355 148 180 1
356 148 255 1
357 149 258 1
358 150 155 1
359 150 260 1
360 151 179 1
361 151 180 1
362 151 261 1
363 152 263 1
364 153 166 1
365 153 265 1
366 154 155 1
367 154 156 1
368 155 158 1
369 155 269 1
370 156 187 1
371 157 158 1
372 157 159 1
373 157 205 1
374 158 272 1
375 158 273 1
376 159 160 1
377 159 182 1
378 160 171 1
379 161 165 1
380 161 166 1
381 161 171 1
382 161 283 1
383 162 164 1
384 162 167 1
385 162 286 1
386 162 288 1
387 163 164 1
388 163 165 1
389 163 218 1
390 163 291 1
391 164 166 1
392 164 293 1
393 165 221 1
394 166 294 1
395 167 178 1
396 167 180 1
397 167 295 1
398 168 169 1
399 168 181 1
400 168 196 1
401 168 197 1
402 169 170 1
403 169 182 1
404 169 297 1
405 170 172 1
406 170 209 1
407 171 172 1
408 173 177 1
409 173 192 1
410 173 193 1
411 173 174 1
412 174 175 1
413 174 190 1
414 174 191 1
415 175 176 1
416 175 178 1
417 175 194 1
418 176 177 1
419 176 308 1
420 177 315 1
421 178 179 1
422 178 195 1
423 179 319 1
424 180 322 1
425 181 183 1
426 181 199 1
427 182 183 1
428 182 330 1
429 183 198 1
@<TRIPOS>SUBSTRUCTURE
1	UNK1	1	GROUP	1 ****	UNK
