# created with PyMOL 2.5.5
@<TRIPOS>MOLECULE
full_87
170 196 1               
SMALL
USER_CHARGES
@<TRIPOS>ATOM
1	 C01	6.327	4.942	26.860	C.3	1	UNK1	0.000	
2	 C02	6.238	5.419	28.316	C.3	1	UNK1	0.000	
3	 C03	6.042	4.218	29.251	C.3	1	UNK1	0.000	
4	 C04	7.504	6.199	28.731	C.3	1	UNK1	0.000	
5	 C05	5.930	2.016	31.641	C.3	1	UNK1	0.000	
6	 C06	6.056	3.538	31.789	C.3	1	UNK1	0.000	
7	 C07	5.884	4.640	30.711	C.3	1	UNK1	0.000	
8	 C08	6.945	5.686	31.154	C.3	1	UNK1	0.000	
9	 C09	6.192	1.293	30.327	C.3	1	UNK1	0.000	
10	 C10	7.332	6.765	30.153	C.3	1	UNK1	0.000	
11	 C11	7.803	7.343	27.759	C.3	1	UNK1	0.000	
12	 C12	7.843	6.906	26.274	C.3	1	UNK1	0.000	
13	 C13	6.591	6.101	25.904	C.3	1	UNK1	0.000	
14	 C14	9.138	6.156	25.887	C.3	1	UNK1	0.000	
15	 C15	10.398	6.928	26.291	C.3	1	UNK1	0.000	
16	 C16	10.344	7.214	27.780	C.3	1	UNK1	0.000	
17	 C17	11.447	8.086	28.354	C.3	1	UNK1	0.000	
18	 C18	9.335	8.397	29.612	C.3	1	UNK1	0.000	
19	 C19	10.881	8.460	29.741	C.3	1	UNK1	0.000	
20	 C20	8.527	7.615	30.685	C.3	1	UNK1	0.000	
21	 C22	9.104	8.032	28.139	C.3	1	UNK1	0.000	
22	 C23	7.351	0.041	32.038	C.3	1	UNK1	0.000	
23	 C24	11.568	3.563	36.997	C.3	1	UNK1	0.000	
24	 C25	8.187	2.455	32.407	C.3	1	UNK1	0.000	
25	 C26	7.453	3.775	32.401	C.3	1	UNK1	0.000	
26	 C27	9.389	2.376	33.353	C.3	1	UNK1	0.000	
27	 C28	10.525	2.101	35.436	C.3	1	UNK1	0.000	
28	 C29	9.164	1.881	34.791	C.3	1	UNK1	0.000	
29	 C30	8.127	4.798	31.511	C.3	1	UNK1	0.000	
30	 C31	10.383	3.592	33.445	C.3	1	UNK1	0.000	
31	 C32	11.276	3.163	34.612	C.3	1	UNK1	0.000	
32	 C33	11.824	4.186	35.599	C.3	1	UNK1	0.000	
33	 C34	7.037	1.442	32.570	C.3	1	UNK1	0.000	
34	 C36	9.795	5.027	33.495	C.3	1	UNK1	0.000	
35	 C37	10.311	2.701	36.815	C.3	1	UNK1	0.000	
36	 C38	9.370	5.496	32.054	C.3	1	UNK1	0.000	
37	 C39	11.341	5.632	35.515	C.3	1	UNK1	0.000	
38	 C40	10.647	6.111	34.212	C.3	1	UNK1	0.000	
39	 C41	13.142	6.474	37.310	C.3	1	UNK1	0.000	
40	 C42	12.517	6.541	35.908	C.3	1	UNK1	0.000	
41	 C43	9.289	7.031	31.930	C.3	1	UNK1	0.000	
42	 C44	11.514	7.027	33.306	C.3	1	UNK1	0.000	
43	 C45	11.483	7.571	30.819	C.3	1	UNK1	0.000	
44	 C46	10.688	7.651	32.123	C.3	1	UNK1	0.000	
45	 C47	12.201	8.217	34.119	C.3	1	UNK1	0.000	
46	 C48	13.647	8.451	33.642	C.3	1	UNK1	0.000	
47	 C49	12.133	7.991	35.628	C.3	1	UNK1	0.000	
48	 C50	11.413	3.784	39.523	C.3	1	UNK1	0.000	
49	 C51	15.269	9.835	36.925	C.3	1	UNK1	0.000	
50	 C54	13.141	7.925	37.859	C.3	1	UNK1	0.000	
51	 C55	14.010	10.717	34.885	C.3	1	UNK1	0.000	
52	 C56	15.488	8.527	37.605	C.3	1	UNK1	0.000	
53	 C57	16.900	8.667	38.131	C.3	1	UNK1	0.000	
54	 C58	16.490	9.879	36.032	C.3	1	UNK1	0.000	
55	 C59	13.916	10.002	36.262	C.3	1	UNK1	0.000	
56	 C60	15.490	11.694	33.194	C.3	1	UNK1	0.000	
57	 C61	17.630	9.393	36.970	C.3	1	UNK1	0.000	
58	 C62	13.932	9.935	33.557	C.3	1	UNK1	0.000	
59	 C63	16.577	11.267	35.441	C.3	1	UNK1	0.000	
60	 C64	15.205	10.264	32.777	C.3	1	UNK1	0.000	
61	 C65	12.861	8.894	36.630	C.3	1	UNK1	0.000	
62	 C67	8.960	3.402	36.713	C.3	1	UNK1	0.000	
63	 C68	11.542	4.535	38.186	C.3	1	UNK1	0.000	
64	 C70	12.840	5.351	38.336	C.3	1	UNK1	0.000	
65	 C71	8.159	2.557	35.727	C.3	1	UNK1	0.000	
66	 C72	12.747	5.820	39.798	C.3	1	UNK1	0.000	
67	 C73	12.195	4.596	40.548	C.3	1	UNK1	0.000	
68	 C74	16.229	6.419	39.140	C.3	1	UNK1	0.000	
69	 C75	15.009	7.231	39.676	C.3	1	UNK1	0.000	
70	 C76	14.020	6.350	40.462	C.3	1	UNK1	0.000	
71	 C77	17.382	7.289	38.568	C.3	1	UNK1	0.000	
72	 C78	14.429	8.243	38.648	C.3	1	UNK1	0.000	
73	 C79	15.264	11.667	34.710	C.3	1	UNK1	0.000	
74	 C21	6.489	-0.130	30.788	C.3	1	UNK1	0.000	
75	 H02	15.000	12.679	35.044	 H	1	UNK1	0.000	
76	 H03	18.218	10.232	37.358	 H	1	UNK1	0.000	
77	 H05	14.769	12.373	32.722	 H	1	UNK1	0.000	
78	 H10	7.390	3.141	35.223	 H	1	UNK1	0.000	
79	 H13	7.631	1.778	36.292	 H	1	UNK1	0.000	
80	 H14	8.928	0.810	34.762	 H	1	UNK1	0.000	
81	 H15	6.993	-0.719	30.017	 H	1	UNK1	0.000	
82	 H16	5.555	-0.643	31.046	 H	1	UNK1	0.000	
83	 H17	7.104	-0.728	32.778	 H	1	UNK1	0.000	
84	 H18	8.413	-0.071	31.796	 H	1	UNK1	0.000	
85	 H19	5.387	4.453	26.575	 H	1	UNK1	0.000	
86	 H20	7.114	4.186	26.756	 H	1	UNK1	0.000	
87	 H21	5.723	6.773	25.919	 H	1	UNK1	0.000	
88	 H22	6.672	5.721	24.879	 H	1	UNK1	0.000	
89	 H23	16.491	12.023	32.900	 H	1	UNK1	0.000	
90	 H24	18.312	8.727	36.430	 H	1	UNK1	0.000	
91	 H25	16.910	9.333	39.006	 H	1	UNK1	0.000	
92	 H26	11.174	9.495	29.967	 H	1	UNK1	0.000	
93	 H27	12.399	2.860	37.170	 H	1	UNK1	0.000	
94	 H28	8.612	2.301	31.403	 H	1	UNK1	0.000	
95	 H29	10.003	1.572	32.907	 H	1	UNK1	0.000	
96	 H30	8.461	4.292	30.595	 H	1	UNK1	0.000	
97	 H31	11.016	3.555	32.546	 H	1	UNK1	0.000	
98	 H32	12.140	2.644	34.167	 H	1	UNK1	0.000	
99	 H33	12.913	4.183	35.449	 H	1	UNK1	0.000	
100	 H34	10.182	5.182	31.385	 H	1	UNK1	0.000	
101	 H35	9.878	6.813	34.582	 H	1	UNK1	0.000	
102	 H36	14.186	6.249	37.065	 H	1	UNK1	0.000	
103	 H37	13.339	6.278	35.226	 H	1	UNK1	0.000	
104	 H38	12.301	6.379	32.894	 H	1	UNK1	0.000	
105	 H39	11.552	6.534	30.472	 H	1	UNK1	0.000	
106	 H40	11.832	2.773	39.465	 H	1	UNK1	0.000	
107	 H41	15.363	10.640	37.675	 H	1	UNK1	0.000	
108	 H42	16.401	9.144	35.223	 H	1	UNK1	0.000	
109	 H43	13.517	10.840	36.866	 H	1	UNK1	0.000	
110	 H44	16.753	11.993	36.246	 H	1	UNK1	0.000	
111	 H45	12.038	9.529	37.005	 H	1	UNK1	0.000	
112	 H46	13.673	4.633	38.275	 H	1	UNK1	0.000	
113	 H47	11.970	6.591	39.882	 H	1	UNK1	0.000	
114	 H48	11.561	4.902	41.388	 H	1	UNK1	0.000	
115	 H49	15.468	7.863	40.455	 H	1	UNK1	0.000	
116	 H50	14.219	9.165	39.212	 H	1	UNK1	0.000	
117	 H01	12.515	7.899	30.973	 H	1	UNK1	0.000	
118	 H04	17.451	11.342	34.784	 H	1	UNK1	0.000	
119	 H06	13.131	11.382	34.856	 H	1	UNK1	0.000	
120	 H07	9.029	4.421	36.338	 H	1	UNK1	0.000	
121	 H08	12.998	3.974	40.960	 H	1	UNK1	0.000	
122	 H09	10.362	3.682	39.814	 H	1	UNK1	0.000	
123	 H11	11.586	8.990	27.749	 H	1	UNK1	0.000	
124	 H12	12.409	7.566	28.403	 H	1	UNK1	0.000	
125	 H87	5.363	6.078	28.404	 H	1	UNK1	0.000	
126	 H89	6.912	3.569	29.128	 H	1	UNK1	0.000	
127	 H91	5.161	3.644	28.943	 H	1	UNK1	0.000	
128	 H93	8.346	5.496	28.723	 H	1	UNK1	0.000	
129	 H95	4.944	1.700	32.009	 H	1	UNK1	0.000	
130	 H96	15.895	5.724	38.363	 H	1	UNK1	0.000	
131	 H97	5.339	3.805	32.583	 H	1	UNK1	0.000	
132	 H98	16.644	5.793	39.939	 H	1	UNK1	0.000	
133	 H99	4.888	5.090	30.813	 H	1	UNK1	0.000	
134	H101	6.575	6.184	32.064	 H	1	UNK1	0.000	
135	H102	14.584	5.512	40.892	 H	1	UNK1	0.000	
136	H103	7.075	1.671	29.806	 H	1	UNK1	0.000	
137	H104	13.691	6.930	41.337	 H	1	UNK1	0.000	
138	H106	18.163	7.410	39.328	 H	1	UNK1	0.000	
139	H107	5.336	1.330	29.648	 H	1	UNK1	0.000	
140	H108	17.846	6.751	37.734	 H	1	UNK1	0.000	
141	H109	6.470	7.449	30.098	 H	1	UNK1	0.000	
142	H111	6.992	8.080	27.854	 H	1	UNK1	0.000	
143	H112	7.826	7.821	25.665	 H	1	UNK1	0.000	
144	H116	9.155	5.988	24.803	 H	1	UNK1	0.000	
145	H117	9.163	5.167	26.358	 H	1	UNK1	0.000	
146	H118	10.462	7.861	25.718	 H	1	UNK1	0.000	
147	H119	11.289	6.339	26.050	 H	1	UNK1	0.000	
148	H120	10.349	6.256	28.317	 H	1	UNK1	0.000	
149	H123	8.985	9.439	29.701	 H	1	UNK1	0.000	
150	H125	7.990	8.448	31.178	 H	1	UNK1	0.000	
151	H128	9.141	8.970	27.560	 H	1	UNK1	0.000	
152	H134	7.276	4.161	33.407	 H	1	UNK1	0.000	
153	H136	11.110	1.175	35.486	 H	1	UNK1	0.000	
154	H142	6.679	1.404	33.605	 H	1	UNK1	0.000	
155	H146	8.901	4.982	34.124	 H	1	UNK1	0.000	
156	H147	10.254	1.909	37.572	 H	1	UNK1	0.000	
157	H149	10.563	5.797	36.263	 H	1	UNK1	0.000	
158	H153	8.684	7.355	32.793	 H	1	UNK1	0.000	
159	H157	10.513	8.715	32.328	 H	1	UNK1	0.000	
160	H158	11.619	9.130	33.946	 H	1	UNK1	0.000	
161	H159	13.801	8.019	32.650	 H	1	UNK1	0.000	
162	H160	14.382	7.960	34.290	 H	1	UNK1	0.000	
163	H161	11.071	8.104	35.903	 H	1	UNK1	0.000	
164	H169	12.281	8.056	38.525	 H	1	UNK1	0.000	
165	H172	15.498	7.736	36.841	 H	1	UNK1	0.000	
166	H181	13.116	10.388	32.970	 H	1	UNK1	0.000	
167	H184	16.031	9.600	33.048	 H	1	UNK1	0.000	
168	H185	15.052	10.182	31.696	 H	1	UNK1	0.000	
169	H190	8.465	3.459	37.688	 H	1	UNK1	0.000	
170	H192	10.686	5.217	38.138	 H	1	UNK1	0.000	
@<TRIPOS>BOND
1 1 2 1
2 1 13 1
3 1 85 1
4 1 86 1
5 2 3 1
6 2 4 1
7 2 125 1
8 3 7 1
9 3 126 1
10 3 127 1
11 4 10 1
12 4 11 1
13 4 128 1
14 5 6 1
15 5 9 1
16 5 33 1
17 5 129 1
18 6 7 1
19 6 25 1
20 6 131 1
21 7 8 1
22 7 133 1
23 8 10 1
24 8 29 1
25 8 134 1
26 9 74 1
27 9 136 1
28 9 139 1
29 10 20 1
30 10 141 1
31 11 12 1
32 11 21 1
33 11 142 1
34 12 13 1
35 12 14 1
36 12 143 1
37 13 87 1
38 13 88 1
39 14 15 1
40 14 144 1
41 14 145 1
42 15 16 1
43 15 146 1
44 15 147 1
45 16 17 1
46 16 21 1
47 16 148 1
48 17 19 1
49 17 123 1
50 17 124 1
51 18 19 1
52 18 20 1
53 18 21 1
54 18 149 1
55 19 43 1
56 19 92 1
57 20 41 1
58 20 150 1
59 21 151 1
60 22 33 1
61 22 83 1
62 22 84 1
63 23 32 1
64 23 35 1
65 23 63 1
66 23 93 1
67 24 25 1
68 24 26 1
69 24 33 1
70 24 94 1
71 25 29 1
72 25 152 1
73 26 28 1
74 26 30 1
75 26 95 1
76 27 28 1
77 27 31 1
78 27 35 1
79 27 153 1
80 28 80 1
81 29 36 1
82 29 96 1
83 30 31 1
84 30 34 1
85 30 97 1
86 31 32 1
87 31 98 1
88 32 37 1
89 32 99 1
90 33 154 1
91 34 36 1
92 34 38 1
93 34 155 1
94 35 62 1
95 35 156 1
96 36 41 1
97 36 100 1
98 37 38 1
99 37 40 1
100 37 157 1
101 38 42 1
102 38 101 1
103 39 40 1
104 39 50 1
105 39 64 1
106 39 102 1
107 40 47 1
108 40 103 1
109 41 44 1
110 41 158 1
111 42 44 1
112 42 45 1
113 42 104 1
114 43 44 1
115 43 105 1
116 43 117 1
117 44 159 1
118 45 46 1
119 45 47 1
120 45 160 1
121 46 58 1
122 46 161 1
123 46 162 1
124 47 61 1
125 47 163 1
126 48 106 1
127 48 122 1
128 49 52 1
129 49 54 1
130 49 55 1
131 49 107 1
132 50 61 1
133 50 72 1
134 50 164 1
135 51 55 1
136 51 58 1
137 51 73 1
138 51 119 1
139 52 53 1
140 52 72 1
141 52 165 1
142 53 71 1
143 53 91 1
144 54 57 1
145 54 59 1
146 54 108 1
147 55 61 1
148 55 109 1
149 56 60 1
150 56 77 1
151 56 89 1
152 53 57 1
153 57 76 1
154 57 90 1
155 58 60 1
156 58 166 1
157 59 73 1
158 59 110 1
159 59 118 1
160 60 167 1
161 60 168 1
162 61 111 1
163 62 65 1
164 62 120 1
165 62 169 1
166 48 63 1
167 63 64 1
168 63 170 1
169 64 66 1
170 64 112 1
171 28 65 1
172 65 78 1
173 65 79 1
174 66 67 1
175 66 70 1
176 66 113 1
177 48 67 1
178 67 114 1
179 67 121 1
180 68 69 1
181 68 71 1
182 68 130 1
183 68 132 1
184 69 70 1
185 69 72 1
186 69 115 1
187 70 135 1
188 70 137 1
189 71 138 1
190 71 140 1
191 72 116 1
192 56 73 1
193 73 75 1
194 22 74 1
195 74 81 1
196 74 82 1
@<TRIPOS>SUBSTRUCTURE
1	UNK1	1	GROUP	1 ****	UNK
