# created with PyMOL 2.5.5
@<TRIPOS>MOLECULE
full_87
77 89 1                 
SMALL
USER_CHARGES
@<TRIPOS>ATOM
1	 C01	8.727	44.363	43.553	C.2	1	UNK1	0.000	
2	 C02	8.753	49.963	44.074	C.2	1	UNK1	0.000	
3	 C03	9.353	48.053	43.013	C.2	1	UNK1	0.000	
4	 C04	10.172	48.996	42.516	C.2	1	UNK1	0.000	
5	 C05	9.129	45.634	43.731	C.2	1	UNK1	0.000	
6	 C06	9.364	46.611	42.625	C.3	1	UNK1	0.000	
7	 C07	8.456	48.655	43.996	C.2	1	UNK1	0.000	
8	 C08	9.859	50.322	43.126	C.2	1	UNK1	0.000	
9	 C09	6.852	41.185	49.853	C.3	1	UNK1	0.000	
10	 C10	7.470	42.163	50.832	C.3	1	UNK1	0.000	
11	 C11	6.617	43.303	51.432	C.3	1	UNK1	0.000	
12	 C12	7.958	42.414	45.084	C.3	1	UNK1	0.000	
13	 C13	8.571	43.737	44.831	C.2	1	UNK1	0.000	
14	 C14	8.317	41.876	46.471	C.3	1	UNK1	0.000	
15	 C15	8.713	44.395	47.252	C.3	1	UNK1	0.000	
16	 C16	8.923	44.604	45.792	C.2	1	UNK1	0.000	
17	 C17	7.737	41.029	48.641	C.3	1	UNK1	0.000	
18	 C18	8.880	42.045	48.799	C.3	1	UNK1	0.000	
19	 C19	8.970	42.861	47.484	C.3	1	UNK1	0.000	
20	 C20	7.149	41.265	47.248	C.3	1	UNK1	0.000	
21	 C21	3.425	47.988	46.746	C.3	1	UNK1	0.000	
22	 C22	4.593	46.939	47.016	C.3	1	UNK1	0.000	
23	 C23	2.936	46.423	49.107	C.3	1	UNK1	0.000	
24	 C24	1.778	45.926	46.912	C.3	1	UNK1	0.000	
25	 C25	1.663	46.022	48.407	C.3	1	UNK1	0.000	
26	 C26	6.081	47.514	46.873	C.3	1	UNK1	0.000	
27	 C27	4.752	50.155	46.338	C.3	1	UNK1	0.000	
28	 C28	3.611	49.257	45.880	C.3	1	UNK1	0.000	
29	 C29	4.310	46.258	48.431	C.3	1	UNK1	0.000	
30	 C30	2.100	47.295	46.308	C.3	1	UNK1	0.000	
31	 C31	6.077	49.774	45.689	C.3	1	UNK1	0.000	
32	 C32	5.478	43.943	50.623	C.3	1	UNK1	0.000	
33	 C33	1.885	47.053	44.810	C.3	1	UNK1	0.000	
34	 C34	5.792	44.228	49.162	C.3	1	UNK1	0.000	
35	 C35	4.615	44.762	48.367	C.3	1	UNK1	0.000	
36	 C36	0.810	45.968	44.742	C.3	1	UNK1	0.000	
37	 C37	0.480	45.612	46.183	C.3	1	UNK1	0.000	
38	 C38	6.253	48.269	45.519	C.3	1	UNK1	0.000	
39	 C39	7.412	46.654	47.024	C.3	1	UNK1	0.000	
40	 C40	7.522	47.772	44.798	C.3	1	UNK1	0.000	
41	 C41	9.260	45.933	45.217	C.2	1	UNK1	0.000	
42	 C42	8.355	47.025	45.836	C.3	1	UNK1	0.000	
43	 C43	7.363	45.151	47.475	C.3	1	UNK1	0.000	
44	 C44	6.989	45.132	48.960	C.3	1	UNK1	0.000	
45	 C45	8.807	42.611	50.205	C.3	1	UNK1	0.000	
46	 H01	2.794	46.709	44.304	 H	1	UNK1	0.000	
47	 H02	-0.069	46.311	44.192	 H	1	UNK1	0.000	
48	 H03	0.199	44.560	46.285	 H	1	UNK1	0.000	
49	 H04	2.828	47.365	49.651	 H	1	UNK1	0.000	
50	 H05	5.781	41.274	49.665	 H	1	UNK1	0.000	
51	 H06	6.286	41.933	47.251	 H	1	UNK1	0.000	
52	 H07	4.528	51.195	46.067	 H	1	UNK1	0.000	
53	 H08	8.529	43.878	42.607	 H	1	UNK1	0.000	
54	 H09	9.056	43.665	50.287	 H	1	UNK1	0.000	
55	 H10	10.325	46.370	42.155	 H	1	UNK1	0.000	
56	 H11	7.839	44.834	49.551	 H	1	UNK1	0.000	
57	 H12	3.693	49.026	44.812	 H	1	UNK1	0.000	
58	 H13	6.889	50.195	46.291	 H	1	UNK1	0.000	
59	 H14	6.870	42.492	44.964	 H	1	UNK1	0.000	
60	 H15	10.726	50.702	43.677	 H	1	UNK1	0.000	
61	 H16	10.940	48.837	41.773	 H	1	UNK1	0.000	
62	 H17	1.226	45.128	48.861	 H	1	UNK1	0.000	
63	 H18	7.287	44.096	51.787	 H	1	UNK1	0.000	
64	 H19	4.606	43.279	50.676	 H	1	UNK1	0.000	
65	 H21	8.340	50.695	44.747	 H	1	UNK1	0.000	
66	 H26	5.781	41.274	49.665	 H	1	UNK1	0.000	
67	 H30	3.738	44.111	48.440	 H	1	UNK1	0.000	
68	 H42	2.828	47.365	49.651	 H	1	UNK1	0.000	
69	 H43	2.529	45.186	46.612	 H	1	UNK1	0.000	
70	 H44	1.226	45.128	48.861	 H	1	UNK1	0.000	
71	 H47	4.971	46.733	49.160	 H	1	UNK1	0.000	
72	 H50	1.304	47.998	46.606	 H	1	UNK1	0.000	
73	 H53	2.794	46.709	44.304	 H	1	UNK1	0.000	
74	 H55	3.738	44.111	48.440	 H	1	UNK1	0.000	
75	 H56	-0.069	46.311	44.192	 H	1	UNK1	0.000	
76	 H57	0.199	44.560	46.285	 H	1	UNK1	0.000	
77	 H63	6.600	44.662	46.855	 H	1	UNK1	0.000	
@<TRIPOS>BOND
1 1 5 ar
2 1 53 1
3 2 7 ar
4 2 8 ar
5 2 65 1
6 3 4 ar
7 3 6 1
8 3 7 ar
9 4 8 ar
10 4 61 1
11 5 6 1
12 5 41 ar
13 6 55 1
14 7 40 1
15 8 60 1
16 9 10 1
17 9 17 1
18 9 50 1
19 9 66 1
20 10 11 1
21 10 45 1
22 11 32 1
23 11 63 1
24 12 13 1
25 12 14 1
26 12 59 1
27 1 13 ar
28 13 16 ar
29 14 19 1
30 14 20 1
31 15 16 1
32 15 19 1
33 15 43 1
34 16 41 ar
35 17 18 1
36 17 20 1
37 18 19 1
38 18 45 1
39 20 51 1
40 21 22 1
41 21 28 1
42 21 30 1
43 22 26 1
44 22 29 1
45 23 25 1
46 23 29 1
47 23 49 1
48 23 68 1
49 24 25 1
50 24 30 1
51 24 37 1
52 24 69 1
53 25 62 1
54 25 70 1
55 26 38 1
56 26 39 1
57 27 28 1
58 27 31 1
59 27 52 1
60 28 57 1
61 29 35 1
62 29 71 1
63 30 33 1
64 30 72 1
65 31 38 1
66 31 58 1
67 32 34 1
68 32 64 1
69 33 36 1
70 33 46 1
71 33 73 1
72 34 35 1
73 34 44 1
74 35 67 1
75 35 74 1
76 36 37 1
77 36 47 1
78 36 75 1
79 37 48 1
80 37 76 1
81 38 40 1
82 39 42 1
83 39 43 1
84 40 42 1
85 41 42 1
86 43 44 1
87 43 77 1
88 44 56 1
89 45 54 1
@<TRIPOS>SUBSTRUCTURE
1	UNK1	1	GROUP	1 ****	UNK
