# created with PyMOL 2.5.5
@<TRIPOS>MOLECULE
568
23 25 1                 
SMALL
USER_CHARGES
@<TRIPOS>ATOM
1	   C	0.000	-1.624	0.000	C.2	1	UNK1	0.000	
2	 C02	0.713	0.522	0.000	C.2	1	UNK1	0.000	
3	 C03	-0.713	0.522	0.000	C.2	1	UNK1	0.000	
4	 C04	1.096	-0.815	0.000	C.2	1	UNK1	0.000	
5	 C05	-1.096	-0.815	0.000	C.2	1	UNK1	0.000	
6	 C06	1.719	1.506	0.000	C.2	1	UNK1	0.000	
7	 C07	-1.719	1.507	0.000	C.2	1	UNK1	0.000	
8	 C08	2.421	-1.249	0.000	C.2	1	UNK1	0.000	
9	 C09	-2.421	-1.249	-0.000	C.2	1	UNK1	0.000	
10	 C10	3.060	1.100	0.000	C.2	1	UNK1	0.000	
11	 C11	-3.060	1.100	-0.000	C.2	1	UNK1	0.000	
12	 C12	3.402	-0.254	-0.001	C.2	1	UNK1	0.000	
13	 C13	-3.402	-0.254	-0.000	C.2	1	UNK1	0.000	
14	 H01	0.000	-2.276	0.873	 H	1	UNK1	0.000	
15	 H02	0.000	-2.255	-0.889	 H	1	UNK1	0.000	
16	 H14	1.469	2.563	0.001	 H	1	UNK1	0.000	
17	 H15	-1.469	2.563	0.000	 H	1	UNK1	0.000	
18	 H16	2.679	-2.301	-0.000	 H	1	UNK1	0.000	
19	 H17	-2.679	-2.301	-0.000	 H	1	UNK1	0.000	
20	 H18	3.845	1.852	-0.000	 H	1	UNK1	0.000	
21	 H19	-3.845	1.852	-0.001	 H	1	UNK1	0.000	
22	 H20	4.451	-0.539	-0.001	 H	1	UNK1	0.000	
23	 H21	-4.451	-0.539	-0.001	 H	1	UNK1	0.000	
@<TRIPOS>BOND
1 1 4 ar
2 1 5 ar
3 1 14 1
4 1 15 1
5 2 3 ar
6 2 4 ar
7 2 6 ar
8 3 5 ar
9 3 7 ar
10 4 8 ar
11 5 9 ar
12 6 10 ar
13 6 16 1
14 7 11 ar
15 7 17 1
16 8 12 ar
17 8 18 1
18 9 13 ar
19 9 19 1
20 10 12 ar
21 10 20 1
22 11 13 ar
23 11 21 1
24 12 22 1
25 13 23 1
@<TRIPOS>SUBSTRUCTURE
1	UNK1	1	GROUP	1 ****	UNK
