# created with PyMOL 2.5.5
@<TRIPOS>MOLECULE
C4H6
10 9 1                  
SMALL
USER_CHARGES
@<TRIPOS>ATOM
1	 C1	0.506	-0.133	2.019	C.3	1	ROOT1	0.000	
2	 C2	-0.619	-0.562	2.603	C.3	1	ROOT1	0.000	
3	  C2	0.943	-0.594	0.725	C.3	1	ROOT1	0.000	
4	  C3	2.068	-0.166	0.140	C.3	1	ROOT1	0.000	
5	 H1	1.126	0.596	2.536	 H	1	ROOT1	0.000	
6	 H2	-0.909	-0.187	3.579	 H	1	ROOT1	0.000	
7	 H3	-1.274	-1.288	2.132	 H	1	ROOT1	0.000	
8	 H4	2.358	-0.541	-0.836	 H	1	ROOT1	0.000	
9	 H5	2.723	0.560	0.610	 H	1	ROOT1	0.000	
10	 H6	0.323	-1.324	0.208	 H	1	ROOT1	0.000	
@<TRIPOS>BOND
1 1 2 1
2 1 5 1
3 2 6 1
4 2 7 1
5 1 3 1
6 3 4 1
7 3 10 1
8 4 8 1
9 4 9 1
@<TRIPOS>SUBSTRUCTURE
1	ROOT1	1	GROUP	1 ****	ROOT
