# created with PyMOL 2.5.5
@<TRIPOS>MOLECULE
*****
14 13 1                 
SMALL
USER_CHARGES
@<TRIPOS>ATOM
1	  C1	2.681	-0.366	-0.000	C.3	1	UNK0	-0.031	
2	  C2	1.384	0.446	0.000	C.3	1	UNK0	0.090	
3	  O1	0.247	-0.457	0.000	O.3	1	UNK0	-0.465	
4	  C3	-1.001	0.036	-0.000	C.2	1	UNK0	0.304	
5	  O2	-1.179	1.231	-0.000	O.co2	1	UNK0	-0.251	
6	  C4	-2.181	-0.902	-0.000	C.3	1	UNK0	0.033	
7	  H1	3.534	0.312	0.000	 H	1	UNK0	0.026	
8	  H2	2.716	-0.995	0.890	 H	1	UNK0	0.026	
9	  H3	2.716	-0.995	-0.890	 H	1	UNK0	0.026	
10	  H4	1.349	1.074	0.890	 H	1	UNK0	0.069	
11	  H5	1.349	1.074	-0.890	 H	1	UNK0	0.069	
12	  H6	-2.466	-1.128	1.028	 H	1	UNK0	0.034	
13	  H7	-3.019	-0.431	-0.514	 H	1	UNK0	0.034	
14	  H8	-1.912	-1.824	-0.514	 H	1	UNK0	0.034	
@<TRIPOS>BOND
1 1 2 1
2 1 7 1
3 1 8 1
4 1 9 1
5 2 3 1
6 2 10 1
7 2 11 1
8 3 4 1
9 4 5 2
10 4 6 1
11 6 12 1
12 6 13 1
13 6 14 1
@<TRIPOS>SUBSTRUCTURE
1	UNK0	1	GROUP	1 ****	UNK
