# created with PyMOL 2.5.5
@<TRIPOS>MOLECULE
1004
8 7 1                   
SMALL
USER_CHARGES
@<TRIPOS>ATOM
1	 O05	-0.826	-1.003	-1.018	O.3	1	UNK0	0.000	
2	 H03	-0.671	0.122	2.121	 H	1	UNK0	0.000	
3	 O01	-0.792	-0.541	1.416	O.3	1	UNK0	0.000	
4	 H02	-0.819	-1.917	-0.684	 H	1	UNK0	0.000	
5	 H01	1.862	-0.059	-0.592	 H	1	UNK0	0.000	
6	 O04	1.337	-0.496	0.104	O.3	1	UNK0	0.000	
7	   P	-0.177	-0.019	0.046	P.3	1	UNK0	0.000	
8	 O03	-0.358	1.436	-0.182	O.co2	1	UNK0	0.000	
@<TRIPOS>BOND
1 1 4 1
2 2 3 1
3 5 6 1
4 6 7 1
5 1 7 1
6 3 7 1
7 7 8 1
@<TRIPOS>SUBSTRUCTURE
1	UNK0	1	GROUP	1 ****	UNK
