# created with PyMOL 2.5.5
@<TRIPOS>MOLECULE
1004
7 6 1                   
SMALL
USER_CHARGES
@<TRIPOS>ATOM
1	 H01	1.593	-0.059	-0.043	 H	1	UNK0	0.000	
2	 H02	-1.369	-1.106	-0.897	 H	1	UNK0	0.000	
3	 H05	-1.111	-0.238	1.761	 H	1	UNK0	0.000	
4	   P	0.192	0.066	0.052	P.3	1	UNK0	0.000	
5	 O01	-0.407	-1.184	-0.767	O.3	1	UNK0	0.000	
6	 O02	-0.183	-0.431	1.536	O.3	1	UNK0	0.000	
7	   O	-0.632	1.276	-0.263	O.2	1	UNK0	0.000	
@<TRIPOS>BOND
1 1 4 1
2 4 5 1
3 4 6 1
4 4 7 2
5 2 5 1
6 3 6 1
@<TRIPOS>SUBSTRUCTURE
1	UNK0	1	GROUP	1 ****	UNK
