# created with PyMOL 2.5.5
@<TRIPOS>MOLECULE
tclcactvs000B1O4Hs
3 2 1                   
SMALL
USER_CHARGES
@<TRIPOS>ATOM
1	  O2	-0.503	1.291	-0.858	O.2	1	UNK0	0.000	
2	  O3	-0.267	-1.207	-0.714	O.2	1	UNK0	0.000	
3	  S1	-0.177	0.101	-0.093	S.2	1	UNK0	0.000	
@<TRIPOS>BOND
1 1 3 2
2 2 3 2
@<TRIPOS>SUBSTRUCTURE
1	UNK0	1	GROUP	1 ****	UNK
