# created with PyMOL 2.5.5
@<TRIPOS>MOLECULE
*****
3 2 1                   
SMALL
USER_CHARGES
@<TRIPOS>ATOM
1	  S1	0.000	-0.051	-0.000	S.3	1	UNK0	-0.196	
2	  H2	-1.030	0.813	0.000	 H	1	UNK0	0.098	
3	  H1	1.030	0.813	0.000	 H	1	UNK0	0.098	
@<TRIPOS>BOND
1 1 2 1
2 1 3 1
@<TRIPOS>SUBSTRUCTURE
1	UNK0	1	GROUP	1 ****	UNK
