# created with PyMOL 2.5.5
@<TRIPOS>MOLECULE
C80H22
102 131 1               
SMALL
USER_CHARGES
@<TRIPOS>ATOM
1	 C01	2.189	-6.091	0.000	C.2	1	UNK0	0.000	
2	 C02	3.359	-6.762	0.000	C.2	1	UNK0	0.000	
3	 C03	4.634	-6.048	0.000	C.2	1	UNK0	0.000	
4	 C04	5.830	-6.673	0.000	C.2	1	UNK0	0.000	
5	 C05	7.118	-5.955	0.000	C.2	1	UNK0	0.000	
6	 C06	7.112	-4.598	0.000	C.2	1	UNK0	0.000	
7	 C07	5.840	-3.857	0.000	C.2	1	UNK0	0.000	
8	 C08	5.868	-2.443	0.000	C.2	1	UNK0	0.000	
9	 C09	4.645	-1.741	0.000	C.2	1	UNK0	0.000	
10	 C10	3.439	-2.477	0.000	C.2	1	UNK0	0.000	
11	 C11	3.432	-3.874	0.000	C.2	1	UNK0	0.000	
12	 C12	4.640	-4.568	0.000	C.2	1	UNK0	0.000	
13	 C13	2.160	-4.630	0.000	C.2	1	UNK0	0.000	
14	 C14	1.018	-3.912	0.000	C.2	1	UNK0	0.000	
15	 C15	0.986	-2.439	0.000	C.2	1	UNK0	0.000	
16	 C16	2.157	-1.752	0.000	C.2	1	UNK0	0.000	
17	 C17	2.163	-0.272	0.000	C.2	1	UNK0	0.000	
18	 C18	3.409	0.394	0.000	C.2	1	UNK0	0.000	
19	 C19	4.634	-0.326	0.000	C.2	1	UNK0	0.000	
20	 C20	5.861	0.377	0.000	C.2	1	UNK0	0.000	
21	 C21	5.862	1.788	0.000	C.2	1	UNK0	0.000	
22	 C22	4.639	2.493	0.000	C.2	1	UNK0	0.000	
23	 C23	3.413	1.802	0.000	C.2	1	UNK0	0.000	
24	 C24	2.188	2.510	0.000	C.2	1	UNK0	0.000	
25	 C25	2.213	3.985	0.000	C.2	1	UNK0	0.000	
26	 C26	3.377	4.662	0.000	C.2	1	UNK0	0.000	
27	 C27	4.653	3.897	0.000	C.2	1	UNK0	0.000	
28	 C28	5.862	4.620	0.000	C.2	1	UNK0	0.000	
29	 C29	5.867	6.032	0.000	C.2	1	UNK0	0.000	
30	 C30	7.081	6.727	0.000	C.2	1	UNK0	0.000	
31	 C31	8.303	6.039	0.000	C.2	1	UNK0	0.000	
32	 C32	8.305	4.625	0.000	C.2	1	UNK0	0.000	
33	 C33	7.084	3.914	0.000	C.2	1	UNK0	0.000	
34	 C34	7.084	2.499	0.000	C.2	1	UNK0	0.000	
35	 C35	8.308	1.797	0.000	C.2	1	UNK0	0.000	
36	 C36	9.530	2.506	0.000	C.2	1	UNK0	0.000	
37	 C37	9.528	3.918	0.000	C.2	1	UNK0	0.000	
38	 C38	10.750	4.625	0.000	C.2	1	UNK0	0.000	
39	 C39	10.738	6.033	0.000	C.2	1	UNK0	0.000	
40	 C40	9.525	6.729	0.000	C.2	1	UNK0	0.000	
41	 C41	12.017	6.762	0.000	C.2	1	UNK0	0.000	
42	 C42	13.182	6.095	0.000	C.2	1	UNK0	0.000	
43	 C43	13.199	4.623	0.000	C.2	1	UNK0	0.000	
44	 C44	11.973	3.923	0.000	C.2	1	UNK0	0.000	
45	 C45	11.977	2.512	0.000	C.2	1	UNK0	0.000	
46	 C46	10.756	1.804	0.000	C.2	1	UNK0	0.000	
47	 C47	10.762	0.395	0.000	C.2	1	UNK0	0.000	
48	 C48	11.989	-0.307	0.000	C.2	1	UNK0	0.000	
49	 C49	13.209	0.401	0.000	C.2	1	UNK0	0.000	
50	 C50	13.203	1.811	0.000	C.2	1	UNK0	0.000	
51	 C51	14.418	2.529	0.000	C.2	1	UNK0	0.000	
52	 C52	14.412	3.927	0.000	C.2	1	UNK0	0.000	
53	 C53	15.689	1.785	0.000	C.2	1	UNK0	0.000	
54	 C54	15.694	0.443	0.000	C.2	1	UNK0	0.000	
55	 C55	14.428	-0.310	0.000	C.2	1	UNK0	0.000	
56	 C56	14.433	-1.710	0.000	C.2	1	UNK0	0.000	
57	 C57	13.226	-2.416	0.000	C.2	1	UNK0	0.000	
58	 C58	12.000	-1.718	0.000	C.2	1	UNK0	0.000	
59	 C59	10.785	-2.420	0.000	C.2	1	UNK0	0.000	
60	 C60	9.552	-1.722	0.000	C.2	1	UNK0	0.000	
61	 C61	9.540	-0.313	0.000	C.2	1	UNK0	0.000	
62	 C62	8.312	0.385	0.000	C.2	1	UNK0	0.000	
63	 C63	7.089	-0.327	0.000	C.2	1	UNK0	0.000	
64	 C64	7.097	-1.739	0.000	C.2	1	UNK0	0.000	
65	 C65	8.334	-2.433	0.000	C.2	1	UNK0	0.000	
66	 C66	8.377	-3.843	0.000	C.2	1	UNK0	0.000	
67	 C67	9.586	-4.537	0.000	C.2	1	UNK0	0.000	
68	 C68	10.790	-3.825	0.000	C.2	1	UNK0	0.000	
69	 C69	12.067	-4.589	0.000	C.2	1	UNK0	0.000	
70	 C70	13.221	-3.894	0.000	C.2	1	UNK0	0.000	
71	 C71	12.041	-6.050	0.000	C.2	1	UNK0	0.000	
72	 C72	10.876	-6.726	0.000	C.2	1	UNK0	0.000	
73	 C73	9.601	-6.019	0.000	C.2	1	UNK0	0.000	
74	 C74	8.412	-6.657	0.000	C.2	1	UNK0	0.000	
75	 C75	4.590	6.771	0.000	C.2	1	UNK0	0.000	
76	 C76	3.417	6.117	0.000	C.2	1	UNK0	0.000	
77	 C77	0.964	1.824	0.000	C.2	1	UNK0	0.000	
78	 C78	0.947	0.429	0.000	C.2	1	UNK0	0.000	
79	 C79	-0.306	-0.337	0.000	C.2	1	UNK0	0.000	
80	   C	-0.269	-1.681	0.000	C.2	1	UNK0	0.000	
81	 H80	1.248	-6.631	0.000	 H	1	UNK0	0.000	
82	 H81	3.368	-7.847	0.000	 H	1	UNK0	0.000	
83	 H82	5.883	-7.757	0.000	 H	1	UNK0	0.000	
84	 H83	0.055	-4.413	0.000	 H	1	UNK0	0.000	
85	 H84	1.259	4.502	0.000	 H	1	UNK0	0.000	
86	 H85	7.075	7.815	0.000	 H	1	UNK0	0.000	
87	 H86	9.530	7.817	0.000	 H	1	UNK0	0.000	
88	 H87	11.998	7.847	0.000	 H	1	UNK0	0.000	
89	 H88	14.128	6.626	0.000	 H	1	UNK0	0.000	
90	 H89	15.351	4.473	0.000	 H	1	UNK0	0.000	
91	 H90	16.618	2.345	0.000	 H	1	UNK0	0.000	
92	 H91	16.628	-0.110	0.000	 H	1	UNK0	0.000	
93	 H92	15.378	-2.248	0.000	 H	1	UNK0	0.000	
94	 H93	14.182	-4.397	0.000	 H	1	UNK0	0.000	
95	 H94	12.984	-6.588	0.000	 H	1	UNK0	0.000	
96	 H95	10.874	-7.811	0.000	 H	1	UNK0	0.000	
97	 H96	8.371	-7.743	0.000	 H	1	UNK0	0.000	
98	 H97	4.619	7.856	0.000	 H	1	UNK0	0.000	
99	 H98	2.482	6.669	0.000	 H	1	UNK0	0.000	
100	 H99	0.029	2.377	0.000	 H	1	UNK0	0.000	
101	1H00	-1.249	0.199	0.000	 H	1	UNK0	0.000	
102	   H	-1.196	-2.246	0.000	 H	1	UNK0	0.000	
@<TRIPOS>BOND
1 1 2 ar
2 1 13 ar
3 1 81 1
4 2 3 ar
5 2 82 1
6 3 4 ar
7 3 12 ar
8 4 5 ar
9 4 83 1
10 5 6 ar
11 5 74 ar
12 6 7 ar
13 6 66 ar
14 7 8 ar
15 7 12 ar
16 8 9 ar
17 8 64 ar
18 9 10 ar
19 9 19 ar
20 10 11 ar
21 10 16 ar
22 11 12 ar
23 11 13 ar
24 13 14 ar
25 14 15 ar
26 14 84 1
27 15 16 ar
28 15 80 ar
29 16 17 ar
30 17 18 ar
31 17 78 ar
32 18 19 ar
33 18 23 ar
34 19 20 ar
35 20 21 ar
36 20 63 ar
37 21 22 ar
38 21 34 ar
39 22 23 ar
40 22 27 ar
41 23 24 ar
42 24 25 ar
43 24 77 ar
44 25 26 ar
45 25 85 1
46 26 27 ar
47 26 76 ar
48 27 28 ar
49 28 29 ar
50 28 33 ar
51 29 30 ar
52 29 75 ar
53 30 31 ar
54 30 86 1
55 31 32 ar
56 31 40 ar
57 32 33 ar
58 32 37 ar
59 33 34 ar
60 34 35 ar
61 35 36 ar
62 35 62 ar
63 36 37 ar
64 36 46 ar
65 37 38 ar
66 38 39 ar
67 38 44 ar
68 39 40 ar
69 39 41 ar
70 40 87 1
71 41 42 ar
72 41 88 1
73 42 43 ar
74 42 89 1
75 43 44 ar
76 43 52 ar
77 44 45 ar
78 45 46 ar
79 45 50 ar
80 46 47 ar
81 47 48 ar
82 47 61 ar
83 48 49 ar
84 48 58 ar
85 49 50 ar
86 49 55 ar
87 50 51 ar
88 51 52 ar
89 51 53 ar
90 52 90 1
91 53 54 ar
92 53 91 1
93 54 55 ar
94 54 92 1
95 55 56 ar
96 56 57 ar
97 56 93 1
98 57 58 ar
99 57 70 ar
100 58 59 ar
101 59 60 ar
102 59 68 ar
103 60 61 ar
104 60 65 ar
105 61 62 ar
106 62 63 ar
107 63 64 ar
108 64 65 ar
109 65 66 ar
110 66 67 ar
111 67 68 ar
112 67 73 ar
113 68 69 ar
114 69 70 ar
115 69 71 ar
116 70 94 1
117 71 72 ar
118 71 95 1
119 72 73 ar
120 72 96 1
121 73 74 ar
122 74 97 1
123 75 76 ar
124 75 98 1
125 76 99 1
126 77 78 ar
127 77 100 1
128 78 79 ar
129 79 80 ar
130 79 101 1
131 80 102 1
@<TRIPOS>SUBSTRUCTURE
1	UNK0	1	GROUP	1 ****	UNK
