# created with PyMOL 2.5.5
@<TRIPOS>MOLECULE
767
72 90 1                 
SMALL
USER_CHARGES
@<TRIPOS>ATOM
1	 C01	-0.018	1.405	0.005	C.2	1	UNK1	0.000	
2	 C02	0.001	-0.005	-0.003	C.2	1	UNK1	0.000	
3	 C03	1.194	2.127	-0.002	C.2	1	UNK1	0.000	
4	 C04	1.232	-0.693	-0.017	C.2	1	UNK1	0.000	
5	 C05	2.424	1.439	-0.017	C.2	1	UNK1	0.000	
6	 C06	2.444	0.028	-0.024	C.2	1	UNK1	0.000	
7	 C07	-1.211	-0.727	0.004	C.2	1	UNK1	0.000	
8	 C08	-1.249	2.094	0.019	C.2	1	UNK1	0.000	
9	 C09	1.251	-2.104	-0.024	C.2	1	UNK1	0.000	
10	 C10	1.174	3.537	0.005	C.2	1	UNK1	0.000	
11	 C11	3.674	-0.660	-0.038	C.2	1	UNK1	0.000	
12	 C12	3.636	2.160	-0.024	C.2	1	UNK1	0.000	
13	 C13	-1.193	-2.137	-0.003	C.2	1	UNK1	0.000	
14	 C14	-1.269	3.504	0.026	C.2	1	UNK1	0.000	
15	 C15	-2.442	-0.039	0.019	C.2	1	UNK1	0.000	
16	 C16	-2.461	1.373	0.026	C.2	1	UNK1	0.000	
17	 C17	2.481	-2.793	-0.039	C.2	1	UNK1	0.000	
18	 C18	2.386	4.260	-0.002	C.2	1	UNK1	0.000	
19	 C19	0.040	-2.826	-0.017	C.2	1	UNK1	0.000	
20	 C20	-0.056	4.227	0.019	C.2	1	UNK1	0.000	
21	 C21	4.887	0.061	-0.045	C.2	1	UNK1	0.000	
22	 C22	4.867	1.473	-0.038	C.2	1	UNK1	0.000	
23	 C23	3.695	-2.070	-0.046	C.2	1	UNK1	0.000	
24	 C24	3.618	3.570	-0.016	C.2	1	UNK1	0.000	
25	 C25	-2.502	4.193	0.040	C.2	1	UNK1	0.000	
26	 C26	-2.407	-2.859	0.004	C.2	1	UNK1	0.000	
27	 C27	-3.693	2.063	0.040	C.2	1	UNK1	0.000	
28	 C28	-3.655	-0.762	0.026	C.2	1	UNK1	0.000	
29	 C29	2.500	-4.205	-0.046	C.2	1	UNK1	0.000	
30	 C30	2.366	5.672	0.005	C.2	1	UNK1	0.000	
31	 C31	-0.074	5.639	0.026	C.2	1	UNK1	0.000	
32	 C32	0.060	-4.239	-0.024	C.2	1	UNK1	0.000	
33	 C33	6.119	-0.629	-0.060	C.2	1	UNK1	0.000	
34	 C34	6.081	2.196	-0.045	C.2	1	UNK1	0.000	
35	 C35	4.927	-2.759	-0.060	C.2	1	UNK1	0.000	
36	 C36	4.832	4.293	-0.023	C.2	1	UNK1	0.000	
37	 C37	-3.706	3.468	0.047	C.2	1	UNK1	0.000	
38	 C38	-3.630	-2.167	0.018	C.2	1	UNK1	0.000	
39	 C39	1.136	6.353	0.020	C.2	1	UNK1	0.000	
40	 C40	1.289	-4.919	-0.039	C.2	1	UNK1	0.000	
41	 C41	6.055	3.601	-0.038	C.2	1	UNK1	0.000	
42	 C42	6.131	-2.035	-0.067	C.2	1	UNK1	0.000	
43	 C43	-2.374	-4.262	-0.003	C.2	1	UNK1	0.000	
44	 C44	-2.508	5.597	0.047	C.2	1	UNK1	0.000	
45	 C45	-4.874	-0.066	0.040	C.2	1	UNK1	0.000	
46	 C46	-4.893	1.334	0.047	C.2	1	UNK1	0.000	
47	 C47	3.731	-4.879	-0.060	C.2	1	UNK1	0.000	
48	 C48	3.578	6.379	-0.002	C.2	1	UNK1	0.000	
49	 C49	-1.153	-4.946	-0.017	C.2	1	UNK1	0.000	
50	 C50	-1.306	6.313	0.041	C.2	1	UNK1	0.000	
51	 C51	7.318	0.100	-0.067	C.2	1	UNK1	0.000	
52	 C52	7.299	1.500	-0.060	C.2	1	UNK1	0.000	
53	 C53	4.933	-4.163	-0.067	C.2	1	UNK1	0.000	
54	 C54	4.800	5.696	-0.016	C.2	1	UNK1	0.000	
55	 H55	-4.653	3.998	0.058	 H	1	UNK1	0.000	
56	 H56	-4.562	-2.722	0.024	 H	1	UNK1	0.000	
57	 H57	1.122	7.437	0.025	 H	1	UNK1	0.000	
58	 H58	1.304	-6.003	-0.044	 H	1	UNK1	0.000	
59	 H59	6.987	4.156	-0.043	 H	1	UNK1	0.000	
60	 H60	7.078	-2.564	-0.078	 H	1	UNK1	0.000	
61	 H61	-3.296	-4.833	0.002	 H	1	UNK1	0.000	
62	 H62	-3.444	6.142	0.058	 H	1	UNK1	0.000	
63	 H63	-5.814	-0.604	0.045	 H	1	UNK1	0.000	
64	 H64	-5.847	1.846	0.058	 H	1	UNK1	0.000	
65	 H65	3.583	7.463	0.004	 H	1	UNK1	0.000	
66	 H66	3.765	-5.962	-0.066	 H	1	UNK1	0.000	
67	 H67	-1.157	-6.029	-0.023	 H	1	UNK1	0.000	
68	 H68	-1.339	7.396	0.046	 H	1	UNK1	0.000	
69	 H69	8.240	2.038	-0.065	 H	1	UNK1	0.000	
70	 H70	8.273	-0.412	-0.078	 H	1	UNK1	0.000	
71	 H71	5.721	6.267	-0.021	 H	1	UNK1	0.000	
72	 H72	5.870	-4.708	-0.079	 H	1	UNK1	0.000	
@<TRIPOS>BOND
1 1 2 ar
2 1 3 ar
3 1 8 ar
4 2 4 ar
5 2 7 ar
6 3 5 ar
7 3 10 ar
8 4 6 ar
9 4 9 ar
10 5 6 ar
11 5 12 ar
12 6 11 ar
13 7 13 ar
14 7 15 ar
15 8 14 ar
16 8 16 ar
17 9 17 ar
18 9 19 ar
19 10 18 ar
20 10 20 ar
21 11 21 ar
22 11 23 ar
23 12 22 ar
24 12 24 ar
25 13 19 ar
26 13 26 ar
27 14 20 ar
28 14 25 ar
29 15 16 ar
30 15 28 ar
31 16 27 ar
32 17 23 ar
33 17 29 ar
34 18 24 ar
35 18 30 ar
36 19 32 ar
37 20 31 ar
38 21 22 ar
39 21 33 ar
40 22 34 ar
41 23 35 ar
42 24 36 ar
43 25 37 ar
44 25 44 ar
45 26 38 ar
46 26 43 ar
47 27 37 ar
48 27 46 ar
49 28 38 ar
50 28 45 ar
51 29 40 ar
52 29 47 ar
53 30 39 ar
54 30 48 ar
55 31 39 ar
56 31 50 ar
57 32 40 ar
58 32 49 ar
59 33 42 ar
60 33 51 ar
61 34 41 ar
62 34 52 ar
63 35 42 ar
64 35 53 ar
65 36 41 ar
66 36 54 ar
67 37 55 1
68 38 56 1
69 39 57 1
70 40 58 1
71 41 59 1
72 42 60 1
73 43 49 ar
74 43 61 1
75 44 50 ar
76 44 62 1
77 45 46 ar
78 45 63 1
79 46 64 1
80 47 53 ar
81 47 66 1
82 48 54 ar
83 48 65 1
84 49 67 1
85 50 68 1
86 51 52 ar
87 51 70 1
88 52 69 1
89 53 72 1
90 54 71 1
@<TRIPOS>SUBSTRUCTURE
1	UNK1	1	GROUP	1 ****	UNK
