# created with PyMOL 2.5.5
@<TRIPOS>MOLECULE
C66H20
86 109 1                
SMALL
USER_CHARGES
@<TRIPOS>ATOM
1	 C01	11.138	-6.037	0.000	C.2	1	UNK0	0.000	
2	 C02	9.969	-6.706	0.000	C.2	1	UNK0	0.000	
3	 C03	8.697	-5.992	0.000	C.2	1	UNK0	0.000	
4	 C04	7.504	-6.620	0.000	C.2	1	UNK0	0.000	
5	 C05	6.211	-5.914	0.000	C.2	1	UNK0	0.000	
6	 C06	6.195	-4.556	0.000	C.2	1	UNK0	0.000	
7	 C07	4.899	-3.830	0.000	C.2	1	UNK0	0.000	
8	 C08	4.888	-2.425	0.000	C.2	1	UNK0	0.000	
9	 C09	3.663	-1.725	0.000	C.2	1	UNK0	0.000	
10	 C10	2.442	-2.436	0.000	C.2	1	UNK0	0.000	
11	 C11	2.474	-3.846	0.000	C.2	1	UNK0	0.000	
12	 C12	3.691	-4.542	0.000	C.2	1	UNK0	0.000	
13	 C13	3.743	-6.009	0.000	C.2	1	UNK0	0.000	
14	 C14	4.933	-6.634	0.000	C.2	1	UNK0	0.000	
15	 C15	1.233	-1.711	0.000	C.2	1	UNK0	0.000	
16	 C16	1.229	-0.307	0.000	C.2	1	UNK0	0.000	
17	 C17	-0.031	0.457	0.000	C.2	1	UNK0	0.000	
18	 C18	-0.012	1.802	0.000	C.2	1	UNK0	0.000	
19	 C19	1.266	2.536	0.000	C.2	1	UNK0	0.000	
20	 C20	2.468	1.810	0.000	C.2	1	UNK0	0.000	
21	 C21	2.443	0.403	0.000	C.2	1	UNK0	0.000	
22	 C22	3.643	-0.318	0.000	C.2	1	UNK0	0.000	
23	 C23	4.936	0.399	0.000	C.2	1	UNK0	0.000	
24	 C24	4.971	1.749	0.000	C.2	1	UNK0	0.000	
25	 C25	3.692	2.510	0.000	C.2	1	UNK0	0.000	
26	 C26	3.741	3.925	0.000	C.2	1	UNK0	0.000	
27	 C27	2.520	4.637	0.000	C.2	1	UNK0	0.000	
28	 C28	1.298	3.936	0.000	C.2	1	UNK0	0.000	
29	 C29	2.548	6.037	0.000	C.2	1	UNK0	0.000	
30	 C30	3.761	6.731	0.000	C.2	1	UNK0	0.000	
31	 C31	4.983	6.047	0.000	C.2	1	UNK0	0.000	
32	 C32	6.205	6.745	0.000	C.2	1	UNK0	0.000	
33	 C33	7.427	6.061	0.000	C.2	1	UNK0	0.000	
34	 C34	7.447	4.656	0.000	C.2	1	UNK0	0.000	
35	 C35	8.661	3.948	0.000	C.2	1	UNK0	0.000	
36	 C36	8.655	2.536	0.000	C.2	1	UNK0	0.000	
37	 C37	9.890	1.834	0.000	C.2	1	UNK0	0.000	
38	 C38	11.113	2.540	0.000	C.2	1	UNK0	0.000	
39	 C39	12.324	1.823	0.000	C.2	1	UNK0	0.000	
40	 C40	12.348	0.418	0.000	C.2	1	UNK0	0.000	
41	 C41	13.553	-0.305	0.000	C.2	1	UNK0	0.000	
42	 C42	13.554	-1.704	0.000	C.2	1	UNK0	0.000	
43	 C43	12.348	-2.409	0.000	C.2	1	UNK0	0.000	
44	 C44	11.130	-1.703	0.000	C.2	1	UNK0	0.000	
45	 C45	11.128	-0.287	0.000	C.2	1	UNK0	0.000	
46	 C46	9.903	0.420	0.000	C.2	1	UNK0	0.000	
47	 C47	8.688	-0.293	0.000	C.2	1	UNK0	0.000	
48	 C48	7.472	0.411	0.000	C.2	1	UNK0	0.000	
49	 C49	7.435	1.820	0.000	C.2	1	UNK0	0.000	
50	 C50	6.247	2.475	0.000	C.2	1	UNK0	0.000	
51	 C51	6.227	3.960	0.000	C.2	1	UNK0	0.000	
52	 C52	4.980	4.634	0.000	C.2	1	UNK0	0.000	
53	 C53	6.192	-0.339	0.000	C.2	1	UNK0	0.000	
54	 C54	6.186	-1.692	0.000	C.2	1	UNK0	0.000	
55	 C55	7.479	-2.414	0.000	C.2	1	UNK0	0.000	
56	 C56	7.475	-3.816	0.000	C.2	1	UNK0	0.000	
57	 C57	8.685	-4.511	0.000	C.2	1	UNK0	0.000	
58	 C58	9.900	-3.807	0.000	C.2	1	UNK0	0.000	
59	 C59	11.173	-4.576	0.000	C.2	1	UNK0	0.000	
60	 C60	12.332	-3.887	0.000	C.2	1	UNK0	0.000	
61	 C61	9.912	-2.401	0.000	C.2	1	UNK0	0.000	
62	 C62	8.691	-1.698	0.000	C.2	1	UNK0	0.000	
63	 C63	11.096	3.943	0.000	C.2	1	UNK0	0.000	
64	 C64	9.885	4.645	0.000	C.2	1	UNK0	0.000	
65	 C65	9.870	6.119	0.000	C.2	1	UNK0	0.000	
66	   C	8.706	6.789	0.000	C.2	1	UNK0	0.000	
67	 H66	12.077	-6.581	0.000	 H	1	UNK0	0.000	
68	 H67	9.960	-7.791	0.000	 H	1	UNK0	0.000	
69	 H68	7.457	-7.705	0.000	 H	1	UNK0	0.000	
70	 H69	1.540	-4.403	0.000	 H	1	UNK0	0.000	
71	 H70	2.815	-6.568	0.000	 H	1	UNK0	0.000	
72	 H71	4.971	-7.719	0.000	 H	1	UNK0	0.000	
73	 H72	0.286	-2.248	0.000	 H	1	UNK0	0.000	
74	 H73	-0.968	-0.087	0.000	 H	1	UNK0	0.000	
75	 H74	-0.936	2.370	0.000	 H	1	UNK0	0.000	
76	 H75	0.362	4.491	0.000	 H	1	UNK0	0.000	
77	 H76	1.621	6.607	0.000	 H	1	UNK0	0.000	
78	 H77	3.739	7.820	0.000	 H	1	UNK0	0.000	
79	 H78	6.203	7.833	0.000	 H	1	UNK0	0.000	
80	 H79	13.266	2.369	0.000	 H	1	UNK0	0.000	
81	 H80	14.506	0.219	0.000	 H	1	UNK0	0.000	
82	 H81	14.504	-2.233	0.000	 H	1	UNK0	0.000	
83	 H82	13.291	-4.395	0.000	 H	1	UNK0	0.000	
84	 H83	12.034	4.494	0.000	 H	1	UNK0	0.000	
85	 H84	10.817	6.648	0.000	 H	1	UNK0	0.000	
86	   H	8.688	7.874	0.000	 H	1	UNK0	0.000	
@<TRIPOS>BOND
1 1 2 ar
2 1 59 ar
3 1 67 1
4 2 3 ar
5 2 68 1
6 3 4 ar
7 3 57 ar
8 4 5 ar
9 4 69 1
10 5 6 ar
11 5 14 ar
12 6 7 ar
13 6 56 ar
14 7 8 ar
15 7 12 ar
16 8 9 ar
17 8 54 ar
18 9 10 ar
19 9 22 ar
20 10 11 ar
21 10 15 ar
22 11 12 ar
23 11 70 1
24 12 13 ar
25 13 14 ar
26 13 71 1
27 14 72 1
28 15 16 ar
29 15 73 1
30 16 17 ar
31 16 21 ar
32 17 18 ar
33 17 74 1
34 18 19 ar
35 18 75 1
36 19 20 ar
37 19 28 ar
38 20 21 ar
39 20 25 ar
40 21 22 ar
41 22 23 ar
42 23 24 ar
43 23 53 ar
44 24 25 ar
45 24 50 ar
46 25 26 ar
47 26 27 ar
48 26 52 ar
49 27 28 ar
50 27 29 ar
51 28 76 1
52 29 30 ar
53 29 77 1
54 30 31 ar
55 30 78 1
56 31 32 ar
57 31 52 ar
58 32 33 ar
59 32 79 1
60 33 34 ar
61 33 66 ar
62 34 35 ar
63 34 51 ar
64 35 36 ar
65 35 64 ar
66 36 37 ar
67 36 49 ar
68 37 38 ar
69 37 46 ar
70 38 39 ar
71 38 63 ar
72 39 40 ar
73 39 80 1
74 40 41 ar
75 40 45 ar
76 41 42 ar
77 41 81 1
78 42 43 ar
79 42 82 1
80 43 44 ar
81 43 60 ar
82 44 45 ar
83 44 61 ar
84 45 46 ar
85 46 47 ar
86 47 48 ar
87 47 62 ar
88 48 49 ar
89 48 53 ar
90 49 50 ar
91 50 51 ar
92 51 52 ar
93 53 54 ar
94 54 55 ar
95 55 56 ar
96 55 62 ar
97 56 57 ar
98 57 58 ar
99 58 59 ar
100 58 61 ar
101 59 60 ar
102 60 83 1
103 61 62 ar
104 63 64 ar
105 63 84 1
106 64 65 ar
107 65 66 ar
108 65 85 1
109 66 86 1
@<TRIPOS>SUBSTRUCTURE
1	UNK0	1	GROUP	1 ****	UNK
