# created with PyMOL 2.5.5
@<TRIPOS>MOLECULE
full_87
107 133 1               
SMALL
USER_CHARGES
@<TRIPOS>ATOM
1	 C01	15.013	10.386	27.488	C.3	1	UNK1	0.000	
2	 C02	15.613	11.266	26.561	C.3	1	UNK1	0.000	
3	 C03	12.847	11.696	30.802	C.3	1	UNK1	0.000	
4	 C04	13.145	10.290	30.768	C.3	1	UNK1	0.000	
5	 C05	14.374	10.919	28.610	C.3	1	UNK1	0.000	
6	 C06	13.967	9.942	29.625	C.3	1	UNK1	0.000	
7	 C07	13.812	12.513	30.079	C.3	1	UNK1	0.000	
8	 C08	15.444	13.175	28.182	C.3	1	UNK1	0.000	
9	 C09	15.874	12.644	26.926	C.3	1	UNK1	0.000	
10	 C10	18.837	16.305	26.894	C.3	1	UNK1	0.000	
11	 C11	17.378	14.577	25.915	C.3	1	UNK1	0.000	
12	 C12	17.715	15.413	26.996	C.3	1	UNK1	0.000	
13	 C13	16.630	13.352	25.940	C.3	1	UNK1	0.000	
14	 C14	16.983	15.293	28.204	C.3	1	UNK1	0.000	
15	 C15	18.898	17.506	30.587	C.3	1	UNK1	0.000	
16	 C16	15.939	14.427	28.692	C.3	1	UNK1	0.000	
17	 C17	18.510	16.977	29.294	C.3	1	UNK1	0.000	
18	 C18	17.349	16.221	29.205	C.3	1	UNK1	0.000	
19	 C19	16.514	16.080	30.292	C.3	1	UNK1	0.000	
20	 C20	14.723	14.767	30.975	C.3	1	UNK1	0.000	
21	 C21	16.786	16.674	31.539	C.3	1	UNK1	0.000	
22	 C22	15.643	15.049	29.971	C.3	1	UNK1	0.000	
23	 C23	19.483	16.392	25.615	C.3	1	UNK1	0.000	
24	 C24	19.271	16.981	28.095	C.3	1	UNK1	0.000	
25	 C25	0.444	10.832	36.562	C.3	1	UNK1	0.000	
26	 C26	1.226	9.684	36.635	C.3	1	UNK1	0.000	
27	 C27	0.966	12.033	36.998	C.3	1	UNK1	0.000	
28	 C28	4.598	11.675	36.627	C.3	1	UNK1	0.000	
29	 C29	2.603	9.730	36.285	C.3	1	UNK1	0.000	
30	 C30	3.275	10.960	37.039	C.3	1	UNK1	0.000	
31	 C31	2.322	12.130	37.376	C.3	1	UNK1	0.000	
32	 C32	7.801	11.866	32.793	C.3	1	UNK1	0.000	
33	 C33	10.325	11.635	33.022	C.3	1	UNK1	0.000	
34	 C34	10.510	10.196	32.839	C.3	1	UNK1	0.000	
35	 C35	9.043	12.120	33.478	C.3	1	UNK1	0.000	
36	 C36	12.402	12.389	32.010	C.3	1	UNK1	0.000	
37	 C37	0.149	13.172	37.122	C.3	1	UNK1	0.000	
38	 C38	6.200	13.536	36.755	C.3	1	UNK1	0.000	
39	 C39	5.019	12.864	37.228	C.3	1	UNK1	0.000	
40	 C40	6.866	13.119	35.583	C.3	1	UNK1	0.000	
41	 C41	11.910	18.047	37.332	C.3	1	UNK1	0.000	
42	 C42	9.972	15.000	35.556	C.3	1	UNK1	0.000	
43	 C43	8.624	14.749	35.938	C.3	1	UNK1	0.000	
44	 C44	11.433	13.767	33.844	C.3	1	UNK1	0.000	
45	 C45	10.265	13.991	34.587	C.3	1	UNK1	0.000	
46	 C46	12.102	16.335	35.793	C.3	1	UNK1	0.000	
47	 C47	7.989	15.216	37.086	C.3	1	UNK1	0.000	
48	 C48	9.969	16.606	37.267	C.3	1	UNK1	0.000	
49	 C49	8.061	13.730	35.167	C.3	1	UNK1	0.000	
50	 C50	9.091	13.225	34.356	C.3	1	UNK1	0.000	
51	 C51	6.748	14.619	37.465	C.3	1	UNK1	0.000	
52	 C52	12.444	14.785	33.853	C.3	1	UNK1	0.000	
53	 C53	10.599	17.727	37.764	C.3	1	UNK1	0.000	
54	 C54	14.646	18.787	37.393	C.3	1	UNK1	0.000	
55	 C55	12.781	17.377	36.480	C.3	1	UNK1	0.000	
56	 C56	13.221	14.646	32.707	C.3	1	UNK1	0.000	
57	 C57	13.166	13.520	31.956	C.3	1	UNK1	0.000	
58	 C58	12.877	15.872	34.691	C.3	1	UNK1	0.000	
59	 C59	18.007	17.368	31.709	C.3	1	UNK1	0.000	
60	 C60	14.238	15.414	32.167	C.3	1	UNK1	0.000	
61	 C61	14.769	16.294	33.099	C.3	1	UNK1	0.000	
62	 C62	14.151	16.510	34.378	C.3	1	UNK1	0.000	
63	 C63	16.033	16.762	32.735	C.3	1	UNK1	0.000	
64	 C64	14.871	17.387	35.269	C.3	1	UNK1	0.000	
65	 C65	16.741	17.500	33.650	C.3	1	UNK1	0.000	
66	 C66	14.142	17.856	36.391	C.3	1	UNK1	0.000	
67	 C67	16.203	17.859	34.905	C.3	1	UNK1	0.000	
68	 C68	17.962	17.874	33.049	C.3	1	UNK1	0.000	
69	 C69	17.147	18.645	35.600	C.3	1	UNK1	0.000	
70	 C70	18.855	18.609	33.826	C.3	1	UNK1	0.000	
71	 C71	18.504	18.926	35.180	C.3	1	UNK1	0.000	
72	 C72	17.062	19.080	36.928	C.3	1	UNK1	0.000	
73	 C73	15.972	19.114	37.794	C.3	1	UNK1	0.000	
74	 C74	18.343	19.514	37.320	C.3	1	UNK1	0.000	
75	 C75	19.276	19.432	36.297	C.3	1	UNK1	0.000	
76	 C76	1.396	16.214	39.778	C.3	1	UNK1	0.000	
77	 C77	4.268	16.869	39.956	C.3	1	UNK1	0.000	
78	 C78	5.694	17.123	39.854	C.3	1	UNK1	0.000	
79	 C79	1.856	17.437	40.328	C.3	1	UNK1	0.000	
80	 C80	3.253	17.811	40.343	C.3	1	UNK1	0.000	
81	 C81	2.374	15.295	39.351	C.3	1	UNK1	0.000	
82	 C82	0.787	18.351	40.578	C.3	1	UNK1	0.000	
83	 C83	3.779	15.609	39.470	C.3	1	UNK1	0.000	
84	 C84	4.669	14.715	38.789	C.3	1	UNK1	0.000	
85	 C85	1.872	14.173	38.613	C.3	1	UNK1	0.000	
86	 C86	6.009	15.121	38.553	C.3	1	UNK1	0.000	
87	 C87	4.174	13.549	38.144	C.3	1	UNK1	0.000	
88	 C88	0.541	14.127	38.094	C.3	1	UNK1	0.000	
89	 C89	2.795	13.243	38.116	C.3	1	UNK1	0.000	
90	 C90	0.044	16.088	39.338	C.3	1	UNK1	0.000	
91	 C91	6.555	16.253	39.146	C.3	1	UNK1	0.000	
92	 C92	6.582	18.205	40.127	C.3	1	UNK1	0.000	
93	 C93	7.912	17.997	39.596	C.3	1	UNK1	0.000	
94	 C94	10.190	18.638	38.785	C.3	1	UNK1	0.000	
95	 C95	7.848	16.788	38.850	C.3	1	UNK1	0.000	
96	 C96	9.095	18.820	39.690	C.3	1	UNK1	0.000	
97	 C97	3.525	19.205	40.539	C.3	1	UNK1	0.000	
98	 C98	4.748	19.892	40.597	C.3	1	UNK1	0.000	
99	 C99	1.106	19.677	40.610	C.3	1	UNK1	0.000	
100	C100	6.107	19.440	40.615	C.3	1	UNK1	0.000	
101	C101	12.381	19.134	38.025	C.3	1	UNK1	0.000	
102	C102	11.358	19.417	38.882	C.3	1	UNK1	0.000	
103	C103	11.707	19.989	40.003	C.3	1	UNK1	0.000	
104	C104	9.353	19.791	40.717	C.3	1	UNK1	0.000	
105	C105	18.706	19.585	38.641	C.3	1	UNK1	0.000	
106	C106	13.740	19.439	38.262	C.3	1	UNK1	0.000	
107	C107	16.297	19.590	39.102	C.3	1	UNK1	0.000	
@<TRIPOS>BOND
1 1 2 1
2 1 5 1
3 2 9 1
4 3 4 1
5 3 7 1
6 3 36 1
7 4 6 1
8 5 6 1
9 8 9 1
10 8 16 1
11 9 13 1
12 10 12 1
13 10 23 1
14 10 24 1
15 11 12 1
16 11 13 1
17 12 14 1
18 14 16 1
19 14 18 1
20 15 17 1
21 15 59 1
22 16 22 1
23 17 18 1
24 17 24 1
25 18 19 1
26 19 21 1
27 19 22 1
28 20 22 1
29 20 60 1
30 21 59 1
31 21 63 1
32 25 26 1
33 25 27 1
34 26 29 1
35 27 31 1
36 27 37 1
37 28 30 1
38 28 39 1
39 29 30 1
40 30 31 1
41 31 89 1
42 32 35 1
43 33 34 1
44 33 35 1
45 35 50 1
46 36 57 1
47 37 88 1
48 38 39 1
49 38 40 1
50 38 51 1
51 39 87 1
52 40 49 1
53 41 53 1
54 41 55 1
55 41 101 1
56 42 43 1
57 42 45 1
58 43 47 1
59 43 49 1
60 44 45 1
61 44 52 1
62 45 50 1
63 46 55 1
64 46 58 1
65 47 51 1
66 48 53 1
67 49 50 1
68 51 86 1
69 52 56 1
70 52 58 1
71 53 94 1
72 54 66 1
73 54 73 1
74 54 106 1
75 55 66 1
76 56 57 1
77 56 60 1
78 58 62 1
79 59 68 1
80 60 61 1
81 61 62 1
82 61 63 1
83 62 64 1
84 63 65 1
85 64 66 1
86 64 67 1
87 65 67 1
88 65 68 1
89 67 69 1
90 68 70 1
91 69 71 1
92 69 72 1
93 70 71 1
94 71 75 1
95 72 73 1
96 72 74 1
97 73 107 1
98 74 75 1
99 74 105 1
100 76 79 1
101 76 81 1
102 76 90 1
103 77 78 1
104 77 80 1
105 77 83 1
106 78 91 1
107 78 92 1
108 79 80 1
109 79 82 1
110 80 97 1
111 81 83 1
112 81 85 1
113 82 99 1
114 83 84 1
115 84 86 1
116 84 87 1
117 85 88 1
118 85 89 1
119 86 91 1
120 87 89 1
121 91 95 1
122 92 93 1
123 92 100 1
124 93 95 1
125 93 96 1
126 94 96 1
127 94 102 1
128 96 104 1
129 97 98 1
130 98 100 1
131 101 102 1
132 101 106 1
133 102 103 1
@<TRIPOS>SUBSTRUCTURE
1	UNK1	1	GROUP	1 ****	UNK
