# created with PyMOL 2.5.5
@<TRIPOS>MOLECULE
full_87
219 249 1               
SMALL
USER_CHARGES
@<TRIPOS>ATOM
1	 C01	9.943	16.537	34.866	C.3	1	UNK1	0.000	
2	 C08	14.027	15.927	28.017	C.3	1	UNK1	0.000	
3	 C09	14.116	16.042	26.490	C.3	1	UNK1	0.000	
4	 C10	18.232	17.374	27.973	C.3	1	UNK1	0.000	
5	 C11	16.530	16.829	26.294	C.3	1	UNK1	0.000	
6	 C12	16.816	16.781	27.809	C.3	1	UNK1	0.000	
7	 C13	15.071	17.128	25.979	C.3	1	UNK1	0.000	
8	 C14	16.585	15.360	28.345	C.3	1	UNK1	0.000	
9	 C15	19.027	15.678	31.323	C.3	1	UNK1	0.000	
10	 C16	15.112	15.054	28.675	C.3	1	UNK1	0.000	
11	 C17	18.234	16.148	30.119	C.3	1	UNK1	0.000	
12	 C18	17.378	14.989	29.616	C.3	1	UNK1	0.000	
13	 C19	16.374	14.431	30.643	C.3	1	UNK1	0.000	
14	 C20	13.802	14.322	30.713	C.3	1	UNK1	0.000	
15	 C21	16.848	14.457	32.119	C.3	1	UNK1	0.000	
16	 C22	15.049	15.076	30.232	C.3	1	UNK1	0.000	
17	 C23	18.784	17.535	26.561	C.3	1	UNK1	0.000	
18	 C24	19.119	16.637	28.967	C.3	1	UNK1	0.000	
19	 C25	1.525	10.557	40.503	C.3	1	UNK1	0.000	
20	 C26	1.821	9.609	39.337	C.3	1	UNK1	0.000	
21	 C27	1.381	12.009	40.036	C.3	1	UNK1	0.000	
22	 C28	4.582	11.900	37.807	C.3	1	UNK1	0.000	
23	 C29	2.742	10.206	38.268	C.3	1	UNK1	0.000	
24	 C30	3.563	11.371	38.822	C.3	1	UNK1	0.000	
25	 C31	2.627	12.515	39.271	C.3	1	UNK1	0.000	
26	 C33	9.416	13.430	32.033	C.3	1	UNK1	0.000	
27	 C35	7.975	13.404	32.551	C.3	1	UNK1	0.000	
28	 C37	0.961	12.930	41.186	C.3	1	UNK1	0.000	
29	 C38	6.136	13.854	37.251	C.3	1	UNK1	0.000	
30	 C39	5.434	13.061	38.368	C.3	1	UNK1	0.000	
31	 C40	6.892	13.057	36.195	C.3	1	UNK1	0.000	
32	 C41	11.370	18.326	36.896	C.3	1	UNK1	0.000	
33	 C42	9.225	15.220	35.280	C.3	1	UNK1	0.000	
34	 C43	7.684	15.366	35.291	C.3	1	UNK1	0.000	
35	 C44	10.044	14.442	32.991	C.3	1	UNK1	0.000	
36	 C45	9.488	14.029	34.348	C.3	1	UNK1	0.000	
37	 C46	11.503	16.539	34.942	C.3	1	UNK1	0.000	
38	 C47	7.144	15.994	36.605	C.3	1	UNK1	0.000	
39	 C48	9.762	17.185	38.700	C.3	1	UNK1	0.000	
40	 C49	7.134	13.953	34.964	C.3	1	UNK1	0.000	
41	 C50	8.172	13.299	34.063	C.3	1	UNK1	0.000	
42	 C51	7.078	14.980	37.762	C.3	1	UNK1	0.000	
43	 C52	11.562	14.701	33.038	C.3	1	UNK1	0.000	
44	 C53	10.036	18.364	37.752	C.3	1	UNK1	0.000	
45	 C54	14.241	17.788	37.398	C.3	1	UNK1	0.000	
46	 C55	11.965	16.921	36.395	C.3	1	UNK1	0.000	
47	 C56	12.363	13.478	32.579	C.3	1	UNK1	0.000	
48	 C58	12.113	15.193	34.441	C.3	1	UNK1	0.000	
49	 C59	18.095	15.318	32.474	C.3	1	UNK1	0.000	
50	 C60	13.786	13.883	32.190	C.3	1	UNK1	0.000	
51	 C61	14.355	14.983	33.094	C.3	1	UNK1	0.000	
52	 C62	13.661	15.075	34.505	C.3	1	UNK1	0.000	
53	 C63	15.853	14.727	33.296	C.3	1	UNK1	0.000	
54	 C64	14.396	16.034	35.501	C.3	1	UNK1	0.000	
55	 C65	16.478	15.849	34.124	C.3	1	UNK1	0.000	
56	 C66	13.509	16.671	36.631	C.3	1	UNK1	0.000	
57	 C67	15.503	16.866	34.748	C.3	1	UNK1	0.000	
58	 C68	17.486	16.517	33.204	C.3	1	UNK1	0.000	
59	 C69	16.350	17.907	35.513	C.3	1	UNK1	0.000	
60	 C70	18.448	17.324	34.059	C.3	1	UNK1	0.000	
61	 C71	17.682	18.377	34.865	C.3	1	UNK1	0.000	
62	 C72	16.757	17.510	36.937	C.3	1	UNK1	0.000	
63	 C73	15.610	17.357	37.951	C.3	1	UNK1	0.000	
64	 C74	17.713	18.650	37.305	C.3	1	UNK1	0.000	
65	 C75	18.525	18.913	36.037	C.3	1	UNK1	0.000	
66	 C76	2.346	16.446	38.813	C.3	1	UNK1	0.000	
67	 C77	4.911	17.796	39.708	C.3	1	UNK1	0.000	
68	 C78	6.373	17.916	39.245	C.3	1	UNK1	0.000	
69	 C79	3.177	17.370	37.921	C.3	1	UNK1	0.000	
70	 C80	3.900	18.446	38.733	C.3	1	UNK1	0.000	
71	 C81	2.992	16.120	40.175	C.3	1	UNK1	0.000	
72	 C83	4.521	16.386	40.229	C.3	1	UNK1	0.000	
73	 C84	5.393	15.164	39.797	C.3	1	UNK1	0.000	
74	 C85	2.675	14.693	40.707	C.3	1	UNK1	0.000	
75	 C86	6.823	15.447	39.233	C.3	1	UNK1	0.000	
76	 C87	4.557	14.113	39.067	C.3	1	UNK1	0.000	
77	 C88	1.175	14.392	40.812	C.3	1	UNK1	0.000	
78	 C89	3.480	13.554	40.019	C.3	1	UNK1	0.000	
79	 C91	7.269	16.816	39.776	C.3	1	UNK1	0.000	
80	 C92	7.001	19.226	39.737	C.3	1	UNK1	0.000	
81	 C93	8.441	18.861	40.200	C.3	1	UNK1	0.000	
82	 C94	10.048	19.751	38.424	C.3	1	UNK1	0.000	
83	 C95	8.707	17.388	39.805	C.3	1	UNK1	0.000	
84	 C96	9.539	19.840	39.857	C.3	1	UNK1	0.000	
85	 C97	4.466	19.541	37.798	C.3	1	UNK1	0.000	
86	 C98	5.278	20.649	38.485	C.3	1	UNK1	0.000	
87	C100	6.770	20.335	38.708	C.3	1	UNK1	0.000	
88	C101	12.327	19.223	37.707	C.3	1	UNK1	0.000	
89	C102	11.496	20.240	38.485	C.3	1	UNK1	0.000	
90	C103	11.811	20.500	39.960	C.3	1	UNK1	0.000	
91	C104	10.797	19.665	40.713	C.3	1	UNK1	0.000	
92	C106	13.364	18.417	38.470	C.3	1	UNK1	0.000	
93	 C02	17.528	17.851	25.752	C.3	1	UNK1	0.000	
94	 H08	3.909	16.781	37.356	 H	1	UNK1	0.000	
95	 H09	2.096	15.543	38.246	 H	1	UNK1	0.000	
96	 H10	13.054	15.473	28.245	 H	1	UNK1	0.000	
97	 H11	9.586	15.382	32.661	 H	1	UNK1	0.000	
98	 H12	9.472	13.748	30.988	 H	1	UNK1	0.000	
99	 H13	9.856	12.431	32.128	 H	1	UNK1	0.000	
100	 H19	7.409	12.558	32.150	 H	1	UNK1	0.000	
101	 H20	7.448	14.327	32.278	 H	1	UNK1	0.000	
102	 H21	18.357	18.392	38.152	 H	1	UNK1	0.000	
103	 H22	15.560	16.311	38.281	 H	1	UNK1	0.000	
104	 H23	15.858	17.924	38.856	 H	1	UNK1	0.000	
105	 H24	19.242	16.604	26.207	 H	1	UNK1	0.000	
106	 H25	19.528	18.334	26.494	 H	1	UNK1	0.000	
107	 H26	17.191	18.877	25.946	 H	1	UNK1	0.000	
108	 H27	17.694	17.739	24.677	 H	1	UNK1	0.000	
109	 H28	11.629	21.561	40.179	 H	1	UNK1	0.000	
110	 H29	12.837	20.299	40.269	 H	1	UNK1	0.000	
111	 H30	11.124	18.622	40.772	 H	1	UNK1	0.000	
112	 H31	10.650	20.029	41.735	 H	1	UNK1	0.000	
113	 H32	14.931	14.021	28.341	 H	1	UNK1	0.000	
114	 H33	17.591	16.981	30.429	 H	1	UNK1	0.000	
115	 H34	18.058	14.164	29.354	 H	1	UNK1	0.000	
116	 H35	16.260	13.361	30.399	 H	1	UNK1	0.000	
117	 H36	13.655	13.420	30.103	 H	1	UNK1	0.000	
118	 H37	2.335	10.488	41.241	 H	1	UNK1	0.000	
119	 H38	0.881	9.305	38.860	 H	1	UNK1	0.000	
120	 H39	0.552	12.018	39.312	 H	1	UNK1	0.000	
121	 H40	1.526	12.695	42.097	 H	1	UNK1	0.000	
122	 H41	6.168	12.646	39.070	 H	1	UNK1	0.000	
123	 H42	9.571	14.937	36.279	 H	1	UNK1	0.000	
124	 H43	7.403	16.033	34.463	 H	1	UNK1	0.000	
125	 H44	11.865	17.334	34.275	 H	1	UNK1	0.000	
126	 H45	9.536	16.281	38.137	 H	1	UNK1	0.000	
127	 H46	8.285	12.232	34.300	 H	1	UNK1	0.000	
128	 H47	9.184	18.401	37.068	 H	1	UNK1	0.000	
129	 H48	12.393	12.734	33.385	 H	1	UNK1	0.000	
130	 H49	11.802	14.455	35.192	 H	1	UNK1	0.000	
131	 H50	14.399	12.975	32.268	 H	1	UNK1	0.000	
132	 H51	14.199	15.954	32.608	 H	1	UNK1	0.000	
133	 H52	13.822	14.073	34.940	 H	1	UNK1	0.000	
134	 H53	15.015	15.335	36.093	 H	1	UNK1	0.000	
135	 H54	15.002	17.431	33.950	 H	1	UNK1	0.000	
136	 H55	17.334	16.576	36.922	 H	1	UNK1	0.000	
137	 H56	3.037	14.699	41.749	 H	1	UNK1	0.000	
138	 H57	4.017	14.616	38.259	 H	1	UNK1	0.000	
139	 H58	0.727	15.038	41.577	 H	1	UNK1	0.000	
140	 H59	6.499	19.569	40.654	 H	1	UNK1	0.000	
141	 H60	8.379	18.859	41.301	 H	1	UNK1	0.000	
142	 H61	9.172	16.902	40.678	 H	1	UNK1	0.000	
143	 H62	4.805	20.933	39.433	 H	1	UNK1	0.000	
144	 H63	7.226	20.072	37.748	 H	1	UNK1	0.000	
145	 H01	10.708	16.955	39.206	 H	1	UNK1	0.000	
146	 H02	9.531	17.348	35.454	 H	1	UNK1	0.000	
147	 H03	14.376	15.071	26.052	 H	1	UNK1	0.000	
148	 H04	9.649	16.849	33.859	 H	1	UNK1	0.000	
149	 H05	13.996	16.925	28.469	 H	1	UNK1	0.000	
150	 H06	5.233	21.537	37.842	 H	1	UNK1	0.000	
151	 H07	7.249	21.260	39.050	 H	1	UNK1	0.000	
152	 H14	12.933	14.958	30.507	 H	1	UNK1	0.000	
153	 H15	-0.097	12.759	41.421	 H	1	UNK1	0.000	
154	 H16	0.654	14.607	39.872	 H	1	UNK1	0.000	
155	 H17	2.269	8.692	39.738	 H	1	UNK1	0.000	
156	 H18	0.614	10.225	41.013	 H	1	UNK1	0.000	
157	H108	13.465	15.850	37.371	 H	1	UNK1	0.000	
158	H111	16.969	17.181	32.500	 H	1	UNK1	0.000	
159	H113	15.771	18.838	35.533	 H	1	UNK1	0.000	
160	H115	19.201	17.820	33.436	 H	1	UNK1	0.000	
161	H117	18.997	16.653	34.733	 H	1	UNK1	0.000	
162	H119	17.453	19.203	34.178	 H	1	UNK1	0.000	
163	H125	17.152	19.554	37.576	 H	1	UNK1	0.000	
164	H127	18.723	19.984	35.925	 H	1	UNK1	0.000	
165	H129	19.497	18.412	36.103	 H	1	UNK1	0.000	
166	H131	1.380	16.931	39.009	 H	1	UNK1	0.000	
167	H133	4.816	18.421	40.610	 H	1	UNK1	0.000	
168	H135	6.419	17.883	38.157	 H	1	UNK1	0.000	
169	H137	2.512	17.828	37.178	 H	1	UNK1	0.000	
170	H139	3.135	18.942	39.351	 H	1	UNK1	0.000	
171	H141	2.538	16.824	40.890	 H	1	UNK1	0.000	
172	H142	13.115	16.292	26.115	 H	1	UNK1	0.000	
173	H144	18.096	18.392	28.372	 H	1	UNK1	0.000	
174	H146	16.786	15.866	25.830	 H	1	UNK1	0.000	
175	H147	4.732	16.456	41.311	 H	1	UNK1	0.000	
176	H149	5.628	14.679	40.762	 H	1	UNK1	0.000	
177	H150	16.151	17.474	28.341	 H	1	UNK1	0.000	
178	H152	14.781	18.100	26.398	 H	1	UNK1	0.000	
179	H153	7.459	14.742	39.799	 H	1	UNK1	0.000	
180	H154	14.953	17.211	24.892	 H	1	UNK1	0.000	
181	H156	16.901	14.646	27.571	 H	1	UNK1	0.000	
182	H158	19.741	16.448	31.637	 H	1	UNK1	0.000	
183	H160	19.625	14.798	31.055	 H	1	UNK1	0.000	
184	H161	3.996	13.015	40.829	 H	1	UNK1	0.000	
185	H169	7.047	16.747	40.858	 H	1	UNK1	0.000	
186	H174	17.201	13.424	32.275	 H	1	UNK1	0.000	
187	H175	9.481	20.442	37.788	 H	1	UNK1	0.000	
188	H176	15.025	16.118	30.575	 H	1	UNK1	0.000	
189	H181	9.182	20.862	40.044	 H	1	UNK1	0.000	
190	H183	3.606	20.023	37.312	 H	1	UNK1	0.000	
191	H184	19.899	17.316	29.332	 H	1	UNK1	0.000	
192	H185	5.047	19.099	36.980	 H	1	UNK1	0.000	
193	H186	19.631	15.793	28.488	 H	1	UNK1	0.000	
194	H198	4.052	12.228	36.903	 H	1	UNK1	0.000	
195	H200	5.245	11.080	37.505	 H	1	UNK1	0.000	
196	H201	12.871	19.839	36.974	 H	1	UNK1	0.000	
197	H202	2.135	10.554	37.422	 H	1	UNK1	0.000	
198	H203	11.566	21.203	37.959	 H	1	UNK1	0.000	
199	H204	3.397	9.420	37.875	 H	1	UNK1	0.000	
200	H206	4.129	10.997	39.687	 H	1	UNK1	0.000	
201	H208	2.236	13.008	38.367	 H	1	UNK1	0.000	
202	H223	13.983	19.083	39.077	 H	1	UNK1	0.000	
203	H225	12.921	17.668	39.133	 H	1	UNK1	0.000	
204	H234	5.315	14.334	36.694	 H	1	UNK1	0.000	
205	H236	6.324	12.182	35.863	 H	1	UNK1	0.000	
206	H237	7.834	12.676	36.609	 H	1	UNK1	0.000	
207	H238	11.148	18.904	35.986	 H	1	UNK1	0.000	
208	H244	10.149	13.303	34.839	 H	1	UNK1	0.000	
209	H247	6.139	16.390	36.410	 H	1	UNK1	0.000	
210	H248	7.760	16.850	36.864	 H	1	UNK1	0.000	
211	H252	6.175	14.056	34.438	 H	1	UNK1	0.000	
212	H254	8.085	14.543	37.829	 H	1	UNK1	0.000	
213	H255	11.742	15.514	32.322	 H	1	UNK1	0.000	
214	H257	14.400	18.604	36.701	 H	1	UNK1	0.000	
215	H258	11.485	16.169	37.035	 H	1	UNK1	0.000	
216	H259	11.905	12.980	31.720	 H	1	UNK1	0.000	
217	H263	18.698	14.752	33.201	 H	1	UNK1	0.000	
218	H267	15.911	13.820	33.922	 H	1	UNK1	0.000	
219	H269	17.026	15.357	34.943	 H	1	UNK1	0.000	
@<TRIPOS>BOND
1 1 146 1
2 1 148 1
3 2 3 1
4 2 10 1
5 2 96 1
6 2 149 1
7 3 7 1
8 3 147 1
9 3 172 1
10 4 6 1
11 4 17 1
12 4 18 1
13 4 173 1
14 5 6 1
15 5 7 1
16 5 93 1
17 5 174 1
18 6 8 1
19 6 177 1
20 7 178 1
21 7 180 1
22 8 10 1
23 8 12 1
24 8 181 1
25 9 11 1
26 9 49 1
27 9 182 1
28 9 183 1
29 10 16 1
30 10 113 1
31 11 12 1
32 11 18 1
33 11 114 1
34 12 13 1
35 12 115 1
36 13 15 1
37 13 16 1
38 13 116 1
39 14 16 1
40 14 50 1
41 14 117 1
42 14 152 1
43 15 49 1
44 15 53 1
45 15 186 1
46 16 188 1
47 17 93 1
48 17 105 1
49 17 106 1
50 18 191 1
51 18 193 1
52 19 20 1
53 19 21 1
54 19 118 1
55 19 156 1
56 20 23 1
57 20 119 1
58 20 155 1
59 21 25 1
60 21 28 1
61 21 120 1
62 22 24 1
63 22 30 1
64 22 194 1
65 22 195 1
66 23 24 1
67 23 197 1
68 23 199 1
69 24 25 1
70 24 200 1
71 25 78 1
72 25 201 1
73 26 27 1
74 26 98 1
75 26 99 1
76 27 41 1
77 27 100 1
78 27 101 1
79 28 77 1
80 28 121 1
81 28 153 1
82 29 30 1
83 29 31 1
84 29 42 1
85 29 204 1
86 30 76 1
87 30 122 1
88 31 40 1
89 31 205 1
90 31 206 1
91 32 44 1
92 32 46 1
93 32 88 1
94 32 207 1
95 1 33 1
96 33 34 1
97 33 36 1
98 33 123 1
99 34 38 1
100 34 40 1
101 34 124 1
102 26 35 1
103 35 36 1
104 35 43 1
105 35 97 1
106 36 41 1
107 36 208 1
108 1 37 1
109 37 46 1
110 37 48 1
111 37 125 1
112 38 42 1
113 38 209 1
114 38 210 1
115 39 44 1
116 39 83 1
117 39 126 1
118 39 145 1
119 40 41 1
120 40 211 1
121 41 127 1
122 42 75 1
123 42 212 1
124 43 47 1
125 43 48 1
126 43 213 1
127 44 82 1
128 44 128 1
129 45 56 1
130 45 63 1
131 45 92 1
132 45 214 1
133 46 56 1
134 46 215 1
135 47 50 1
136 47 129 1
137 47 216 1
138 48 52 1
139 48 130 1
140 49 58 1
141 49 217 1
142 50 51 1
143 50 131 1
144 51 52 1
145 51 53 1
146 51 132 1
147 52 54 1
148 52 133 1
149 53 55 1
150 53 218 1
151 54 56 1
152 54 57 1
153 54 134 1
154 55 57 1
155 55 58 1
156 55 219 1
157 56 157 1
158 57 59 1
159 57 135 1
160 58 60 1
161 58 158 1
162 59 61 1
163 59 62 1
164 59 159 1
165 60 61 1
166 60 160 1
167 60 161 1
168 61 65 1
169 61 162 1
170 62 63 1
171 62 64 1
172 62 136 1
173 63 103 1
174 63 104 1
175 64 65 1
176 64 102 1
177 64 163 1
178 65 164 1
179 65 165 1
180 66 69 1
181 66 71 1
182 66 95 1
183 66 166 1
184 67 68 1
185 67 70 1
186 67 72 1
187 67 167 1
188 68 79 1
189 68 80 1
190 68 168 1
191 69 70 1
192 69 94 1
193 69 169 1
194 70 85 1
195 70 170 1
196 71 72 1
197 71 74 1
198 71 171 1
199 72 73 1
200 72 175 1
201 73 75 1
202 73 76 1
203 73 176 1
204 74 77 1
205 74 78 1
206 74 137 1
207 75 79 1
208 75 179 1
209 76 78 1
210 76 138 1
211 77 139 1
212 77 154 1
213 78 184 1
214 79 83 1
215 79 185 1
216 80 81 1
217 80 87 1
218 80 140 1
219 81 83 1
220 81 84 1
221 81 141 1
222 82 84 1
223 82 89 1
224 82 187 1
225 83 142 1
226 84 91 1
227 84 189 1
228 85 86 1
229 85 190 1
230 85 192 1
231 86 87 1
232 86 143 1
233 86 150 1
234 87 144 1
235 87 151 1
236 88 89 1
237 88 92 1
238 88 196 1
239 89 90 1
240 89 198 1
241 90 91 1
242 90 109 1
243 90 110 1
244 91 111 1
245 91 112 1
246 92 202 1
247 92 203 1
248 93 107 1
249 93 108 1
@<TRIPOS>SUBSTRUCTURE
1	UNK1	1	GROUP	1 ****	UNK
