# created with PyMOL 2.5.5
@<TRIPOS>MOLECULE
full_87
76 96 1                 
SMALL
USER_CHARGES
@<TRIPOS>ATOM
1	 C01	43.414	30.709	29.353	C.3	1	UNK1	0.000	
2	 C02	42.992	30.514	30.625	C.3	1	UNK1	0.000	
3	 C03	43.519	31.525	28.452	C.3	1	UNK1	0.000	
4	 C04	42.139	33.436	28.256	C.3	1	UNK1	0.000	
5	 C05	41.692	34.359	25.996	C.3	1	UNK1	0.000	
6	 C06	43.082	34.057	25.747	C.3	1	UNK1	0.000	
7	 C07	43.663	32.928	26.422	C.3	1	UNK1	0.000	
8	 C08	41.248	34.015	27.302	C.3	1	UNK1	0.000	
9	 C09	43.292	32.709	27.775	C.3	1	UNK1	0.000	
10	 C10	40.648	34.228	29.804	C.3	1	UNK1	0.000	
11	 C11	40.435	35.047	30.881	C.3	1	UNK1	0.000	
12	 C12	41.805	33.445	29.622	C.3	1	UNK1	0.000	
13	 C13	42.532	33.097	30.867	C.3	1	UNK1	0.000	
14	 C14	42.709	31.741	31.364	C.3	1	UNK1	0.000	
15	 C15	44.278	31.937	25.691	C.3	1	UNK1	0.000	
16	 C16	40.834	30.544	35.298	C.3	1	UNK1	0.000	
17	 C17	40.380	30.505	36.616	C.3	1	UNK1	0.000	
18	 C18	41.167	31.187	37.576	C.3	1	UNK1	0.000	
19	 C19	42.396	31.244	32.648	C.3	1	UNK1	0.000	
20	 C20	41.759	31.565	35.009	C.3	1	UNK1	0.000	
21	 C21	42.403	31.974	33.829	C.3	1	UNK1	0.000	
22	 C22	40.997	35.723	33.033	C.3	1	UNK1	0.000	
23	 C23	41.930	35.009	35.267	C.3	1	UNK1	0.000	
24	 C24	42.558	33.715	35.364	C.3	1	UNK1	0.000	
25	 C25	42.053	35.327	33.873	C.3	1	UNK1	0.000	
26	 C26	41.370	35.127	31.825	C.3	1	UNK1	0.000	
27	 C27	41.150	35.748	36.224	C.3	1	UNK1	0.000	
28	 C28	42.477	34.200	31.801	C.3	1	UNK1	0.000	
29	 C29	42.888	34.384	33.173	C.3	1	UNK1	0.000	
30	 C30	43.013	33.269	34.076	C.3	1	UNK1	0.000	
31	 C31	41.961	32.601	35.926	C.3	1	UNK1	0.000	
32	 C32	40.213	36.746	35.798	C.3	1	UNK1	0.000	
33	 C33	41.850	32.346	37.251	C.3	1	UNK1	0.000	
34	 C34	41.556	35.680	37.582	C.3	1	UNK1	0.000	
35	 C35	41.078	30.719	38.869	C.3	1	UNK1	0.000	
36	 C36	42.030	30.758	39.887	C.3	1	UNK1	0.000	
37	 C37	43.770	30.163	41.866	C.3	1	UNK1	0.000	
38	 C38	43.205	31.527	39.940	C.3	1	UNK1	0.000	
39	 C39	44.017	31.349	41.107	C.3	1	UNK1	0.000	
40	 C40	45.390	30.890	43.559	C.3	1	UNK1	0.000	
41	 C41	44.046	35.022	42.036	C.3	1	UNK1	0.000	
42	 C42	42.505	33.231	38.152	C.3	1	UNK1	0.000	
43	 C43	41.738	36.891	39.760	C.3	1	UNK1	0.000	
44	 C44	42.682	35.990	40.224	C.3	1	UNK1	0.000	
45	 C45	43.261	32.753	39.253	C.3	1	UNK1	0.000	
46	 C46	43.054	34.944	39.421	C.3	1	UNK1	0.000	
47	 C47	43.056	37.169	42.290	C.3	1	UNK1	0.000	
48	 C48	43.664	33.834	40.022	C.3	1	UNK1	0.000	
49	 C49	43.277	36.037	41.505	C.3	1	UNK1	0.000	
50	 C50	42.400	34.664	38.187	C.3	1	UNK1	0.000	
51	 C51	41.228	36.786	38.438	C.3	1	UNK1	0.000	
52	 C52	43.915	37.555	43.341	C.3	1	UNK1	0.000	
53	 C53	44.170	33.779	41.351	C.3	1	UNK1	0.000	
54	 C54	40.428	37.877	38.027	C.3	1	UNK1	0.000	
55	 C55	44.735	35.392	43.268	C.3	1	UNK1	0.000	
56	 C56	45.382	34.395	43.624	C.3	1	UNK1	0.000	
57	 C57	45.931	33.257	43.789	C.3	1	UNK1	0.000	
58	 C58	45.357	32.180	42.970	C.3	1	UNK1	0.000	
59	 C59	44.596	32.473	41.809	C.3	1	UNK1	0.000	
60	 C60	44.924	36.739	43.804	C.3	1	UNK1	0.000	
61	 C61	41.357	37.905	40.654	C.3	1	UNK1	0.000	
62	 C62	41.957	37.948	41.931	C.3	1	UNK1	0.000	
63	 C63	41.650	38.956	42.813	C.3	1	UNK1	0.000	
64	 C64	40.545	38.980	40.252	C.3	1	UNK1	0.000	
65	 C65	40.101	38.948	38.924	C.3	1	UNK1	0.000	
66	 C66	42.548	39.350	43.779	C.3	1	UNK1	0.000	
67	 C67	43.731	38.763	43.998	C.3	1	UNK1	0.000	
68	 C68	44.909	30.034	45.736	C.3	1	UNK1	0.000	
69	 C69	45.799	30.732	44.924	C.3	1	UNK1	0.000	
70	 C70	45.893	37.274	44.676	C.3	1	UNK1	0.000	
71	 C71	46.522	31.746	45.580	C.3	1	UNK1	0.000	
72	 C72	46.400	33.032	45.113	C.3	1	UNK1	0.000	
73	 C73	47.258	31.805	46.808	C.3	1	UNK1	0.000	
74	 C74	44.700	39.419	44.764	C.3	1	UNK1	0.000	
75	 C75	46.958	39.490	45.437	C.3	1	UNK1	0.000	
76	 C76	45.876	38.698	44.976	C.3	1	UNK1	0.000	
@<TRIPOS>BOND
1 1 2 1
2 1 3 1
3 2 14 1
4 3 9 1
5 4 8 1
6 4 9 1
7 4 12 1
8 5 6 1
9 5 8 1
10 6 7 1
11 7 9 1
12 7 15 1
13 10 11 1
14 10 12 1
15 11 26 1
16 12 13 1
17 13 14 1
18 13 28 1
19 14 19 1
20 16 17 1
21 16 20 1
22 17 18 1
23 18 33 1
24 18 35 1
25 19 21 1
26 20 21 1
27 20 31 1
28 21 30 1
29 22 25 1
30 22 26 1
31 23 24 1
32 23 25 1
33 23 27 1
34 24 30 1
35 24 31 1
36 25 29 1
37 26 28 1
38 27 32 1
39 27 34 1
40 28 29 1
41 29 30 1
42 31 33 1
43 33 42 1
44 34 50 1
45 34 51 1
46 35 36 1
47 36 38 1
48 37 39 1
49 38 39 1
50 38 45 1
51 39 59 1
52 40 58 1
53 40 69 1
54 41 49 1
55 41 53 1
56 41 55 1
57 42 45 1
58 42 50 1
59 43 44 1
60 43 51 1
61 43 61 1
62 44 46 1
63 44 49 1
64 45 48 1
65 46 48 1
66 46 50 1
67 47 49 1
68 47 52 1
69 47 62 1
70 48 53 1
71 51 54 1
72 52 60 1
73 52 67 1
74 53 59 1
75 54 65 1
76 55 56 1
77 55 60 1
78 56 57 1
79 57 58 1
80 57 72 1
81 58 59 1
82 60 70 1
83 61 62 1
84 61 64 1
85 62 63 1
86 63 66 1
87 64 65 1
88 66 67 1
89 67 74 1
90 68 69 1
91 69 71 1
92 70 76 1
93 71 72 1
94 71 73 1
95 74 76 1
96 75 76 1
@<TRIPOS>SUBSTRUCTURE
1	UNK1	1	GROUP	1 ****	UNK
