# created with PyMOL 2.5.5
@<TRIPOS>MOLECULE
full_87
206 275 1               
SMALL
USER_CHARGES
@<TRIPOS>ATOM
1	 C01	45.512	30.064	26.493	C.3	1	UNK1	0.000	
2	 C02	47.470	31.124	26.805	C.3	1	UNK1	0.000	
3	 C03	49.487	30.228	27.671	C.2	1	UNK1	0.000	
4	 C04	45.410	31.388	26.090	C.3	1	UNK1	0.000	
5	 C05	48.728	31.344	27.226	C.2	1	UNK1	0.000	
6	 C06	50.843	30.626	27.885	C.2	1	UNK1	0.000	
7	 C07	56.304	31.278	27.701	C.3	1	UNK1	0.000	
8	 C08	55.374	30.408	29.593	C.3	1	UNK1	0.000	
9	 C09	53.386	31.510	28.947	C.3	1	UNK1	0.000	
10	 C10	52.921	30.248	29.083	C.3	1	UNK1	0.000	
11	 C11	56.292	30.157	28.518	C.3	1	UNK1	0.000	
12	 C12	60.495	30.179	25.917	C.3	1	UNK1	0.000	
13	 C13	58.355	30.683	26.735	C.3	1	UNK1	0.000	
14	 C14	59.322	30.913	25.737	C.3	1	UNK1	0.000	
15	 C15	57.246	31.534	26.755	C.3	1	UNK1	0.000	
16	 C16	43.001	37.598	28.018	C.3	1	UNK1	0.000	
17	 C17	42.406	37.342	30.417	C.3	1	UNK1	0.000	
18	 C18	42.021	37.655	29.056	C.3	1	UNK1	0.000	
19	 C19	43.800	37.284	30.728	C.3	1	UNK1	0.000	
20	 C20	44.361	37.253	28.335	C.3	1	UNK1	0.000	
21	 C21	50.519	34.310	28.276	C.2	1	UNK1	0.000	
22	 C22	45.399	37.175	27.349	C.3	1	UNK1	0.000	
23	 C23	46.683	36.815	27.893	C.3	1	UNK1	0.000	
24	 C24	46.607	32.070	26.259	C.3	1	UNK1	0.000	
25	 C25	47.632	36.140	27.080	C.3	1	UNK1	0.000	
26	 C26	46.268	34.421	25.503	C.3	1	UNK1	0.000	
27	 C27	47.789	36.259	25.641	C.3	1	UNK1	0.000	
28	 C28	48.157	33.742	27.027	C.3	1	UNK1	0.000	
29	 C29	46.947	33.456	26.295	C.3	1	UNK1	0.000	
30	 C30	48.348	35.007	27.611	C.3	1	UNK1	0.000	
31	 C31	49.048	32.688	27.354	C.2	1	UNK1	0.000	
32	 C32	50.286	33.012	27.832	C.2	1	UNK1	0.000	
33	 C33	45.128	37.622	26.006	C.3	1	UNK1	0.000	
34	 C34	44.741	37.197	29.710	C.3	1	UNK1	0.000	
35	 C35	46.068	37.394	30.127	C.2	1	UNK1	0.000	
36	 C36	48.448	37.073	29.754	C.2	1	UNK1	0.000	
37	 C37	49.580	36.362	29.250	C.2	1	UNK1	0.000	
38	 C38	47.092	37.033	29.242	C.2	1	UNK1	0.000	
39	 C39	49.466	35.220	28.421	C.2	1	UNK1	0.000	
40	 C40	48.718	37.838	30.915	C.2	1	UNK1	0.000	
41	 C41	54.729	31.635	29.206	C.3	1	UNK1	0.000	
42	 C42	51.253	32.002	27.965	C.2	1	UNK1	0.000	
43	 C43	56.513	33.940	26.735	C.3	1	UNK1	0.000	
44	 C44	55.458	32.290	28.179	C.3	1	UNK1	0.000	
45	 C45	52.916	33.810	28.246	C.3	1	UNK1	0.000	
46	 C46	52.570	32.435	28.280	C.3	1	UNK1	0.000	
47	 C47	55.399	33.600	27.627	C.3	1	UNK1	0.000	
48	 C48	54.224	34.356	28.089	C.3	1	UNK1	0.000	
49	 C49	51.826	34.706	28.505	C.2	1	UNK1	0.000	
50	 C50	54.296	35.662	28.606	C.3	1	UNK1	0.000	
51	 C51	51.136	37.610	30.746	C.2	1	UNK1	0.000	
52	 C52	54.782	37.836	30.350	C.3	1	UNK1	0.000	
53	 C53	53.470	37.364	30.368	C.2	1	UNK1	0.000	
54	 C54	50.896	36.655	29.713	C.2	1	UNK1	0.000	
55	 C55	51.969	35.922	29.170	C.2	1	UNK1	0.000	
56	 C56	53.282	36.328	29.399	C.2	1	UNK1	0.000	
57	 C57	55.548	37.493	29.219	C.3	1	UNK1	0.000	
58	 C58	55.477	36.371	28.405	C.3	1	UNK1	0.000	
59	 C59	56.652	36.279	27.534	C.3	1	UNK1	0.000	
60	 C60	57.084	35.269	26.597	C.3	1	UNK1	0.000	
61	 C61	57.382	37.451	27.928	C.3	1	UNK1	0.000	
62	 C62	57.248	32.826	26.169	C.3	1	UNK1	0.000	
63	 C63	58.081	35.620	25.592	C.3	1	UNK1	0.000	
64	 C64	59.042	36.702	25.553	C.3	1	UNK1	0.000	
65	 C65	59.336	37.714	26.525	C.3	1	UNK1	0.000	
66	 C66	65.678	37.508	26.566	C.3	1	UNK1	0.000	
67	 C67	65.738	36.532	25.544	C.3	1	UNK1	0.000	
68	 C68	66.896	37.887	27.180	C.3	1	UNK1	0.000	
69	 C69	41.790	38.895	26.054	C.3	1	UNK1	0.000	
70	 C70	40.554	39.369	26.546	C.3	1	UNK1	0.000	
71	 C71	42.840	38.186	26.727	C.3	1	UNK1	0.000	
72	 C72	40.253	39.201	27.922	C.3	1	UNK1	0.000	
73	 C73	43.986	38.421	25.952	C.3	1	UNK1	0.000	
74	 C74	40.203	38.841	30.189	C.3	1	UNK1	0.000	
75	 C75	40.842	38.441	28.979	C.3	1	UNK1	0.000	
76	 C76	40.568	38.565	31.533	C.3	1	UNK1	0.000	
77	 C77	50.012	38.126	31.419	C.2	1	UNK1	0.000	
78	 C78	46.329	38.037	31.379	C.2	1	UNK1	0.000	
79	 C79	52.443	37.948	31.201	C.2	1	UNK1	0.000	
80	 C80	55.450	38.397	31.442	C.2	1	UNK1	0.000	
81	 C81	56.742	38.061	28.993	C.3	1	UNK1	0.000	
82	 C82	56.853	38.563	31.297	C.2	1	UNK1	0.000	
83	 C83	61.065	39.382	27.068	C.3	1	UNK1	0.000	
84	 C84	62.471	39.329	27.274	C.3	1	UNK1	0.000	
85	 C85	60.514	38.434	26.263	C.3	1	UNK1	0.000	
86	 C86	58.624	38.030	27.651	C.3	1	UNK1	0.000	
87	 C87	60.393	39.668	28.259	C.3	1	UNK1	0.000	
88	 C88	59.620	39.229	30.910	C.2	1	UNK1	0.000	
89	 C89	58.729	39.025	29.844	C.2	1	UNK1	0.000	
90	 C90	61.358	39.840	29.324	C.3	1	UNK1	0.000	
91	 C91	60.986	39.506	30.664	C.2	1	UNK1	0.000	
92	 C92	57.424	38.605	30.024	C.2	1	UNK1	0.000	
93	 C93	62.629	39.605	28.684	C.3	1	UNK1	0.000	
94	 C94	59.180	39.004	28.517	C.3	1	UNK1	0.000	
95	 C95	63.273	38.403	26.510	C.3	1	UNK1	0.000	
96	 C96	64.520	38.104	27.134	C.3	1	UNK1	0.000	
97	 C97	69.156	38.658	26.828	C.3	1	UNK1	0.000	
98	 C98	69.300	38.775	28.226	C.2	1	UNK1	0.000	
99	 C99	68.035	37.953	26.399	C.3	1	UNK1	0.000	
100	C100	64.669	38.467	28.478	C.2	1	UNK1	0.000	
101	C101	64.102	38.991	30.666	C.2	1	UNK1	0.000	
102	C102	68.303	38.338	29.142	C.2	1	UNK1	0.000	
103	C103	67.701	37.945	31.576	C.3	1	UNK1	0.000	
104	C104	65.473	38.580	30.598	C.2	1	UNK1	0.000	
105	C105	63.696	39.033	29.302	C.2	1	UNK1	0.000	
106	C106	68.630	38.193	30.527	C.2	1	UNK1	0.000	
107	C107	65.801	38.279	29.253	C.2	1	UNK1	0.000	
108	C108	67.018	38.110	28.578	C.3	1	UNK1	0.000	
109	C109	71.408	39.825	27.791	C.3	1	UNK1	0.000	
110	C110	70.311	38.763	25.983	C.3	1	UNK1	0.000	
111	C111	72.685	39.428	25.756	C.3	1	UNK1	0.000	
112	C112	71.432	39.468	26.435	C.3	1	UNK1	0.000	
113	C113	69.932	38.540	31.001	C.2	1	UNK1	0.000	
114	C114	70.515	39.249	28.714	C.2	1	UNK1	0.000	
115	C115	70.795	39.178	30.086	C.2	1	UNK1	0.000	
116	C116	71.825	39.988	30.602	C.3	1	UNK1	0.000	
117	C117	41.778	37.866	31.603	C.3	1	UNK1	0.000	
118	C118	44.034	37.894	31.997	C.3	1	UNK1	0.000	
119	C119	68.136	37.791	32.923	C.3	1	UNK1	0.000	
120	C120	70.383	34.835	37.727	C.3	1	UNK1	0.000	
121	C121	41.129	39.820	33.480	C.3	1	UNK1	0.000	
122	C122	40.103	39.390	32.594	C.3	1	UNK1	0.000	
123	C123	42.476	39.362	33.324	C.3	1	UNK1	0.000	
124	C124	42.772	38.252	32.530	C.3	1	UNK1	0.000	
125	C125	47.657	38.334	31.694	C.2	1	UNK1	0.000	
126	C126	49.173	39.456	33.344	C.2	1	UNK1	0.000	
127	C127	46.971	39.528	33.716	C.2	1	UNK1	0.000	
128	C128	47.928	39.028	32.871	C.2	1	UNK1	0.000	
129	C129	45.615	39.307	33.402	C.2	1	UNK1	0.000	
130	C130	50.217	38.987	32.535	C.2	1	UNK1	0.000	
131	C131	45.307	38.441	32.300	C.2	1	UNK1	0.000	
132	C132	55.243	38.881	35.021	C.2	1	UNK1	0.000	
133	C133	55.396	39.711	37.214	C.3	1	UNK1	0.000	
134	C134	55.831	38.615	33.803	C.2	1	UNK1	0.000	
135	C135	53.921	39.322	34.662	C.2	1	UNK1	0.000	
136	C136	51.435	39.551	32.721	C.3	1	UNK1	0.000	
137	C137	53.683	39.008	33.229	C.2	1	UNK1	0.000	
138	C138	56.065	39.042	36.185	C.3	1	UNK1	0.000	
139	C139	54.938	38.620	32.734	C.2	1	UNK1	0.000	
140	C140	52.574	38.857	32.335	C.3	1	UNK1	0.000	
141	C141	59.960	39.070	33.313	C.2	1	UNK1	0.000	
142	C142	59.108	38.992	32.195	C.2	1	UNK1	0.000	
143	C143	61.844	39.281	31.745	C.2	1	UNK1	0.000	
144	C144	59.359	39.005	34.568	C.2	1	UNK1	0.000	
145	C145	61.251	39.089	36.199	C.3	1	UNK1	0.000	
146	C146	57.505	38.960	36.049	C.2	1	UNK1	0.000	
147	C147	61.328	39.140	33.052	C.2	1	UNK1	0.000	
148	C148	62.391	39.023	33.934	C.2	1	UNK1	0.000	
149	C149	58.765	39.036	36.758	C.2	1	UNK1	0.000	
150	C150	59.873	39.025	35.858	C.2	1	UNK1	0.000	
151	C151	57.970	38.918	34.716	C.2	1	UNK1	0.000	
152	C152	61.483	38.984	37.578	C.2	1	UNK1	0.000	
153	C153	62.402	39.074	35.345	C.2	1	UNK1	0.000	
154	C154	57.184	38.716	33.629	C.2	1	UNK1	0.000	
155	C155	57.736	38.727	32.367	C.2	1	UNK1	0.000	
156	C156	65.959	38.415	33.034	C.2	1	UNK1	0.000	
157	C157	63.257	39.118	31.782	C.2	1	UNK1	0.000	
158	C158	68.541	38.372	37.159	C.3	1	UNK1	0.000	
159	C159	67.077	38.025	33.770	C.2	1	UNK1	0.000	
160	C160	63.568	38.969	33.159	C.2	1	UNK1	0.000	
161	C161	67.213	38.201	35.131	C.2	1	UNK1	0.000	
162	C162	66.069	38.537	35.857	C.2	1	UNK1	0.000	
163	C163	64.813	38.778	33.742	C.2	1	UNK1	0.000	
164	C164	63.708	39.077	35.908	C.2	1	UNK1	0.000	
165	C165	66.134	38.374	37.251	C.3	1	UNK1	0.000	
166	C166	64.874	38.823	35.156	C.2	1	UNK1	0.000	
167	C167	68.475	38.295	35.727	C.3	1	UNK1	0.000	
168	C168	63.870	39.030	37.283	C.3	1	UNK1	0.000	
169	C169	66.322	38.328	31.670	C.3	1	UNK1	0.000	
170	C170	67.337	38.020	37.866	C.3	1	UNK1	0.000	
171	C171	69.368	38.183	33.410	C.3	1	UNK1	0.000	
172	C172	69.514	38.508	34.793	C.3	1	UNK1	0.000	
173	C173	70.215	38.678	32.403	C.3	1	UNK1	0.000	
174	C174	71.154	39.629	32.853	C.3	1	UNK1	0.000	
175	C175	71.112	39.629	36.420	C.3	1	UNK1	0.000	
176	C176	70.486	39.439	35.157	C.3	1	UNK1	0.000	
177	C177	71.003	38.725	37.547	C.3	1	UNK1	0.000	
178	C178	69.762	38.144	37.868	C.3	1	UNK1	0.000	
179	C179	66.128	32.614	38.672	C.3	1	UNK1	0.000	
180	C180	68.545	36.338	39.007	C.3	1	UNK1	0.000	
181	C181	65.108	36.600	39.700	C.3	1	UNK1	0.000	
182	C182	66.959	34.834	39.470	C.3	1	UNK1	0.000	
183	C183	66.197	33.581	39.746	C.3	1	UNK1	0.000	
184	C184	66.359	36.116	39.226	C.3	1	UNK1	0.000	
185	C185	68.348	34.970	39.220	C.3	1	UNK1	0.000	
186	C186	67.358	36.994	38.828	C.3	1	UNK1	0.000	
187	C187	64.526	37.805	39.153	C.3	1	UNK1	0.000	
188	C188	73.762	37.755	40.091	C.3	1	UNK1	0.000	
189	C189	72.568	37.488	39.306	C.3	1	UNK1	0.000	
190	C190	71.961	36.176	39.329	C.3	1	UNK1	0.000	
191	C191	69.730	36.996	38.667	C.3	1	UNK1	0.000	
192	C192	70.810	36.026	38.435	C.3	1	UNK1	0.000	
193	C193	58.642	39.358	40.379	C.3	1	UNK1	0.000	
194	C194	58.286	39.662	39.056	C.3	1	UNK1	0.000	
195	C195	59.789	38.585	40.732	C.3	1	UNK1	0.000	
196	C196	60.808	38.453	39.784	C.2	1	UNK1	0.000	
197	C197	60.430	38.792	38.476	C.2	1	UNK1	0.000	
198	C198	62.129	38.015	40.131	C.2	1	UNK1	0.000	
199	C199	59.110	39.074	38.094	C.3	1	UNK1	0.000	
200	C200	63.166	38.256	39.230	C.2	1	UNK1	0.000	
201	C201	62.785	38.924	38.078	C.2	1	UNK1	0.000	
202	C202	64.950	38.451	37.946	C.3	1	UNK1	0.000	
203	C203	74.505	39.372	38.541	C.3	1	UNK1	0.000	
204	C204	74.849	38.397	39.447	C.3	1	UNK1	0.000	
205	C205	72.202	38.500	38.318	C.3	1	UNK1	0.000	
206	C206	73.227	39.444	37.994	C.3	1	UNK1	0.000	
@<TRIPOS>BOND
1 1 4 1
2 2 5 1
3 2 24 1
4 3 5 ar
5 3 6 ar
6 4 24 1
7 5 31 ar
8 6 42 ar
9 7 11 1
10 7 15 1
11 7 44 1
12 8 11 1
13 8 41 1
14 9 10 1
15 9 41 1
16 9 46 1
17 12 14 1
18 13 14 1
19 13 15 1
20 15 62 1
21 16 18 1
22 16 20 1
23 16 71 1
24 17 18 1
25 17 19 1
26 17 117 1
27 18 75 1
28 19 34 1
29 19 118 1
30 20 22 1
31 20 34 1
32 21 32 ar
33 21 39 ar
34 21 49 ar
35 22 23 1
36 22 33 1
37 23 25 1
38 23 38 1
39 24 29 1
40 25 27 1
41 25 30 1
42 26 29 1
43 28 29 1
44 28 30 1
45 28 31 1
46 30 39 1
47 31 32 ar
48 32 42 ar
49 33 73 1
50 34 35 1
51 35 38 ar
52 35 78 ar
53 36 37 ar
54 36 38 ar
55 36 40 ar
56 37 39 ar
57 37 54 ar
58 40 77 ar
59 40 125 ar
60 41 44 1
61 42 46 1
62 43 47 1
63 43 60 1
64 43 62 1
65 44 47 1
66 45 46 1
67 45 48 1
68 45 49 1
69 47 48 1
70 48 50 1
71 49 55 ar
72 50 56 1
73 50 58 1
74 51 54 ar
75 51 77 ar
76 51 79 ar
77 52 53 1
78 52 57 1
79 52 80 1
80 53 56 ar
81 53 79 ar
82 54 55 ar
83 55 56 ar
84 57 58 1
85 57 81 1
86 58 59 1
87 59 60 1
88 59 61 1
89 60 63 1
90 61 81 1
91 61 86 1
92 63 64 1
93 64 65 1
94 65 85 1
95 65 86 1
96 66 67 1
97 66 68 1
98 66 96 1
99 68 99 1
100 68 108 1
101 69 70 1
102 69 71 1
103 70 72 1
104 71 73 1
105 72 75 1
106 74 75 1
107 74 76 1
108 76 117 1
109 76 122 1
110 77 130 ar
111 78 125 ar
112 78 131 ar
113 79 140 1
114 80 82 ar
115 80 139 ar
116 81 92 1
117 82 92 ar
118 82 155 ar
119 83 84 1
120 83 85 1
121 83 87 1
122 84 93 1
123 84 95 1
124 86 94 1
125 87 90 1
126 87 94 1
127 88 89 ar
128 88 91 ar
129 88 142 ar
130 89 92 ar
131 89 94 1
132 90 91 1
133 90 93 1
134 91 143 ar
135 93 105 1
136 95 96 1
137 96 100 1
138 97 98 1
139 97 99 1
140 97 110 1
141 98 102 ar
142 98 114 ar
143 100 105 ar
144 100 107 ar
145 101 104 ar
146 101 105 ar
147 101 157 1
148 102 106 ar
149 102 108 1
150 103 106 1
151 103 119 1
152 103 169 1
153 104 107 ar
154 104 169 1
155 106 113 ar
156 107 108 1
157 109 112 1
158 109 114 1
159 110 112 1
160 111 112 1
161 113 115 ar
162 113 173 1
163 114 115 ar
164 115 116 1
165 117 124 1
166 118 124 1
167 118 131 1
168 119 159 1
169 119 171 1
170 120 192 1
171 121 122 1
172 121 123 1
173 123 124 1
174 125 128 ar
175 126 128 ar
176 126 130 ar
177 127 128 ar
178 127 129 ar
179 129 131 ar
180 130 136 1
181 132 134 ar
182 132 135 ar
183 132 138 1
184 133 138 1
185 134 139 ar
186 134 154 ar
187 135 137 ar
188 136 140 1
189 137 139 ar
190 137 140 1
191 138 146 1
192 141 142 ar
193 141 144 ar
194 141 147 ar
195 142 155 ar
196 143 147 ar
197 143 157 ar
198 144 150 ar
199 144 151 ar
200 145 150 1
201 145 152 1
202 145 153 1
203 146 149 ar
204 146 151 ar
205 147 148 ar
206 148 153 ar
207 148 160 ar
208 149 150 ar
209 149 199 1
210 151 154 ar
211 152 197 ar
212 152 201 ar
213 153 164 ar
214 154 155 ar
215 156 159 ar
216 156 163 ar
217 156 169 1
218 157 160 ar
219 158 167 1
220 158 170 1
221 158 178 1
222 159 161 ar
223 160 163 ar
224 161 162 ar
225 161 167 1
226 162 165 1
227 162 166 ar
228 163 166 ar
229 164 166 ar
230 164 168 1
231 165 170 1
232 165 202 1
233 167 172 1
234 168 201 1
235 168 202 1
236 170 186 1
237 171 172 1
238 171 173 1
239 172 176 1
240 173 174 1
241 175 176 1
242 175 177 1
243 177 178 1
244 177 205 1
245 178 191 1
246 179 183 1
247 180 185 1
248 180 186 1
249 180 191 1
250 181 184 1
251 181 187 1
252 182 183 1
253 182 184 1
254 182 185 1
255 184 186 1
256 187 200 1
257 187 202 1
258 188 189 1
259 188 204 1
260 189 190 1
261 189 205 1
262 190 192 1
263 191 192 1
264 193 194 1
265 193 195 1
266 194 199 1
267 195 196 1
268 196 197 ar
269 196 198 ar
270 197 199 1
271 198 200 ar
272 200 201 ar
273 203 204 1
274 203 206 1
275 205 206 1
@<TRIPOS>SUBSTRUCTURE
1	UNK1	1	GROUP	1 ****	UNK
