# created with PyMOL 2.5.5
@<TRIPOS>MOLECULE
full_87
339 398 1               
SMALL
USER_CHARGES
@<TRIPOS>ATOM
1	 C01	20.203	39.358	31.361	C.3	1	UNK1	0.000	
2	 C02	20.484	39.052	34.288	C.3	1	UNK1	0.000	
3	 C03	21.642	39.686	33.480	C.3	1	UNK1	0.000	
4	 C04	21.590	39.260	32.006	C.3	1	UNK1	0.000	
5	 C05	20.878	36.090	32.589	C.3	1	UNK1	0.000	
6	 C06	19.089	39.243	33.607	C.3	1	UNK1	0.000	
7	 C07	19.199	40.033	32.288	C.3	1	UNK1	0.000	
8	 C08	22.425	37.986	31.713	C.3	1	UNK1	0.000	
9	 C09	23.220	38.284	30.414	C.3	1	UNK1	0.000	
10	 C10	21.887	36.531	31.558	C.3	1	UNK1	0.000	
11	 C12	21.230	33.942	26.444	C.3	1	UNK1	0.000	
12	 C13	22.077	35.191	26.504	C.3	1	UNK1	0.000	
13	 C14	21.965	32.692	26.946	C.3	1	UNK1	0.000	
14	 C15	23.078	36.904	28.129	C.3	1	UNK1	0.000	
15	 C16	21.888	35.968	27.789	C.3	1	UNK1	0.000	
16	 C17	23.119	36.954	29.643	C.3	1	UNK1	0.000	
17	 C18	21.394	35.294	29.108	C.3	1	UNK1	0.000	
18	 C19	21.807	33.486	31.013	C.3	1	UNK1	0.000	
19	 C20	21.542	33.771	29.470	C.3	1	UNK1	0.000	
20	 C21	23.793	31.984	30.408	C.3	1	UNK1	0.000	
21	 C22	23.551	32.171	28.909	C.3	1	UNK1	0.000	
22	 C23	21.722	36.445	30.067	C.3	1	UNK1	0.000	
23	 C24	22.145	32.652	28.515	C.3	1	UNK1	0.000	
24	 C25	23.214	32.154	26.039	C.3	1	UNK1	0.000	
25	 C26	25.571	30.074	22.906	C.3	1	UNK1	0.000	
26	 C27	23.211	32.733	24.597	C.3	1	UNK1	0.000	
27	 C28	23.847	31.874	23.500	C.3	1	UNK1	0.000	
28	 C29	28.331	30.695	25.390	C.3	1	UNK1	0.000	
29	 C30	26.111	31.607	24.659	C.3	1	UNK1	0.000	
30	 C31	24.912	30.932	23.997	C.3	1	UNK1	0.000	
31	 C32	26.960	30.353	24.875	C.3	1	UNK1	0.000	
32	 C33	25.904	32.500	25.904	C.3	1	UNK1	0.000	
33	 C34	24.664	32.127	26.739	C.3	1	UNK1	0.000	
34	 C35	28.220	31.419	26.732	C.3	1	UNK1	0.000	
35	 C36	27.856	30.484	27.886	C.3	1	UNK1	0.000	
36	 C37	24.540	32.936	28.026	C.3	1	UNK1	0.000	
37	 C38	27.168	33.288	28.116	C.3	1	UNK1	0.000	
38	 C39	25.760	33.586	28.635	C.3	1	UNK1	0.000	
39	 C40	28.119	32.694	29.184	C.3	1	UNK1	0.000	
40	 C41	28.019	31.158	29.251	C.3	1	UNK1	0.000	
41	 C42	27.260	32.641	26.704	C.3	1	UNK1	0.000	
42	 C43	25.012	39.133	32.236	C.3	1	UNK1	0.000	
43	 C45	23.067	39.547	34.090	C.3	1	UNK1	0.000	
44	 C46	24.226	40.096	33.189	C.3	1	UNK1	0.000	
45	 C48	25.718	38.434	29.893	C.3	1	UNK1	0.000	
46	 C49	24.569	39.005	30.729	C.3	1	UNK1	0.000	
47	 C50	18.079	35.709	37.258	C.3	1	UNK1	0.000	
48	 C52	17.903	35.047	35.859	C.3	1	UNK1	0.000	
49	 C53	18.733	35.682	34.698	C.3	1	UNK1	0.000	
50	 C54	18.335	34.577	38.243	C.3	1	UNK1	0.000	
51	 C55	18.218	37.986	33.312	C.3	1	UNK1	0.000	
52	 C56	17.945	37.024	34.449	C.3	1	UNK1	0.000	
53	 C57	18.893	34.674	33.486	C.3	1	UNK1	0.000	
54	 C58	17.841	33.335	37.527	C.3	1	UNK1	0.000	
55	 C60	17.941	33.542	36.040	C.3	1	UNK1	0.000	
56	 C61	22.497	32.128	31.220	C.3	1	UNK1	0.000	
57	 C62	19.907	34.965	32.293	C.3	1	UNK1	0.000	
58	 C63	23.292	34.883	36.176	C.3	1	UNK1	0.000	
59	 C64	23.700	32.870	34.682	C.3	1	UNK1	0.000	
60	 C65	24.051	32.223	33.342	C.3	1	UNK1	0.000	
61	 C66	22.764	31.733	32.665	C.3	1	UNK1	0.000	
62	 C67	22.288	32.375	34.966	C.3	1	UNK1	0.000	
63	 C68	19.151	33.164	33.867	C.3	1	UNK1	0.000	
64	 C69	21.381	33.299	35.785	C.3	1	UNK1	0.000	
65	 C70	20.485	33.586	31.846	C.3	1	UNK1	0.000	
66	 C71	20.346	32.616	33.035	C.3	1	UNK1	0.000	
67	 C72	21.614	31.952	33.639	C.3	1	UNK1	0.000	
68	 C73	18.972	32.708	35.334	C.3	1	UNK1	0.000	
69	 C74	20.217	32.398	36.180	C.3	1	UNK1	0.000	
70	 C75	22.112	34.088	36.875	C.3	1	UNK1	0.000	
71	 C76	23.726	34.372	34.773	C.3	1	UNK1	0.000	
72	 C77	25.075	32.618	30.971	C.3	1	UNK1	0.000	
73	 C78	25.084	32.951	32.501	C.3	1	UNK1	0.000	
74	 C79	28.534	34.901	35.523	C.3	1	UNK1	0.000	
75	 C80	27.800	34.766	33.078	C.3	1	UNK1	0.000	
76	 C81	25.258	34.462	32.738	C.3	1	UNK1	0.000	
77	 C82	28.101	33.479	30.550	C.3	1	UNK1	0.000	
78	 C83	26.602	34.952	32.152	C.3	1	UNK1	0.000	
79	 C84	26.867	34.403	30.728	C.3	1	UNK1	0.000	
80	 C85	25.595	33.799	30.135	C.3	1	UNK1	0.000	
81	 C86	28.380	33.343	33.114	C.3	1	UNK1	0.000	
82	 C87	28.430	32.614	31.772	C.3	1	UNK1	0.000	
83	 C88	27.560	35.407	34.467	C.3	1	UNK1	0.000	
84	 C89	24.923	35.055	34.117	C.3	1	UNK1	0.000	
85	 C90	26.085	35.592	34.967	C.3	1	UNK1	0.000	
86	 C91	28.423	35.736	36.776	C.3	1	UNK1	0.000	
87	 C92	25.839	35.785	36.502	C.3	1	UNK1	0.000	
88	 C93	16.787	32.876	41.578	C.3	1	UNK1	0.000	
89	 C94	17.659	34.621	39.637	C.3	1	UNK1	0.000	
90	 C95	16.096	34.194	43.739	C.3	1	UNK1	0.000	
91	 C96	17.627	32.192	44.033	C.3	1	UNK1	0.000	
92	 C97	16.347	32.905	44.517	C.3	1	UNK1	0.000	
93	 C98	15.382	35.154	41.685	C.3	1	UNK1	0.000	
94	 C99	15.800	33.820	42.276	C.3	1	UNK1	0.000	
95	C101	18.304	32.119	39.646	C.3	1	UNK1	0.000	
96	C102	17.275	33.189	40.128	C.3	1	UNK1	0.000	
97	C103	17.786	32.082	42.473	C.3	1	UNK1	0.000	
98	C104	18.573	32.156	38.134	C.3	1	UNK1	0.000	
99	C105	24.666	35.756	40.970	C.3	1	UNK1	0.000	
100	C106	22.994	35.097	42.924	C.3	1	UNK1	0.000	
101	C107	19.236	32.302	42.018	C.3	1	UNK1	0.000	
102	C108	23.101	33.697	40.627	C.3	1	UNK1	0.000	
103	C109	19.516	31.936	40.559	C.3	1	UNK1	0.000	
104	C110	23.811	34.659	41.622	C.3	1	UNK1	0.000	
105	C111	21.545	35.464	42.587	C.3	1	UNK1	0.000	
106	C112	22.458	33.176	38.050	C.3	1	UNK1	0.000	
107	C113	23.438	33.763	39.089	C.3	1	UNK1	0.000	
108	C114	21.695	33.293	41.086	C.3	1	UNK1	0.000	
109	C115	20.958	32.317	40.128	C.3	1	UNK1	0.000	
110	C116	19.634	33.704	42.496	C.3	1	UNK1	0.000	
111	C117	20.804	34.376	41.721	C.3	1	UNK1	0.000	
112	C118	21.255	32.329	38.608	C.3	1	UNK1	0.000	
113	C119	24.428	34.859	38.588	C.3	1	UNK1	0.000	
114	C120	20.037	32.027	37.669	C.3	1	UNK1	0.000	
115	C121	27.603	37.615	40.643	C.3	1	UNK1	0.000	
116	C122	25.129	38.327	41.206	C.3	1	UNK1	0.000	
117	C123	28.175	37.028	39.349	C.3	1	UNK1	0.000	
118	C124	27.072	35.490	37.435	C.3	1	UNK1	0.000	
119	C125	24.479	37.050	41.715	C.3	1	UNK1	0.000	
120	C126	26.221	38.071	40.198	C.3	1	UNK1	0.000	
121	C127	25.758	37.013	39.138	C.3	1	UNK1	0.000	
122	C128	24.399	35.393	37.108	C.3	1	UNK1	0.000	
123	C129	24.530	36.092	39.508	C.3	1	UNK1	0.000	
124	C130	27.017	36.159	38.846	C.3	1	UNK1	0.000	
125	C131	14.458	35.734	42.757	C.3	1	UNK1	0.000	
126	C132	14.837	35.913	45.245	C.3	1	UNK1	0.000	
127	C133	14.800	34.971	44.057	C.3	1	UNK1	0.000	
128	C134	26.432	40.666	44.109	C.3	1	UNK1	0.000	
129	C135	25.287	40.183	45.021	C.3	1	UNK1	0.000	
130	C136	25.062	38.645	44.953	C.3	1	UNK1	0.000	
131	C137	25.528	38.099	43.608	C.3	1	UNK1	0.000	
132	C138	26.227	40.298	42.622	C.3	1	UNK1	0.000	
133	C139	25.271	39.123	42.497	C.3	1	UNK1	0.000	
134	C140	17.188	33.609	48.151	C.3	1	UNK1	0.000	
135	C141	16.201	32.882	46.043	C.3	1	UNK1	0.000	
136	C142	18.951	32.568	44.763	C.3	1	UNK1	0.000	
137	C143	17.468	32.684	46.940	C.3	1	UNK1	0.000	
138	C144	18.878	32.762	46.314	C.3	1	UNK1	0.000	
139	C145	19.295	32.777	49.314	C.3	1	UNK1	0.000	
140	C147	20.279	33.513	48.363	C.3	1	UNK1	0.000	
141	C148	17.933	33.451	49.475	C.3	1	UNK1	0.000	
142	C149	20.816	34.805	48.999	C.3	1	UNK1	0.000	
143	C150	23.617	38.252	45.340	C.3	1	UNK1	0.000	
144	C151	23.707	36.194	43.843	C.3	1	UNK1	0.000	
145	C152	19.744	33.884	46.955	C.3	1	UNK1	0.000	
146	C153	22.838	37.391	44.307	C.3	1	UNK1	0.000	
147	C154	19.937	33.502	43.985	C.3	1	UNK1	0.000	
148	C155	21.388	37.052	44.723	C.3	1	UNK1	0.000	
149	C156	20.756	35.923	43.854	C.3	1	UNK1	0.000	
150	C157	20.877	34.388	46.041	C.3	1	UNK1	0.000	
151	C158	20.168	34.797	44.721	C.3	1	UNK1	0.000	
152	C159	21.160	36.853	46.242	C.3	1	UNK1	0.000	
153	C160	21.971	35.368	48.181	C.3	1	UNK1	0.000	
154	C161	21.717	35.503	46.672	C.3	1	UNK1	0.000	
155	C162	24.925	36.785	43.140	C.3	1	UNK1	0.000	
156	C163	15.666	33.533	48.248	C.3	1	UNK1	0.000	
157	C164	15.582	35.373	46.448	C.3	1	UNK1	0.000	
158	C165	15.282	33.904	46.796	C.3	1	UNK1	0.000	
159	C167	15.730	33.650	50.735	C.3	1	UNK1	0.000	
160	C168	15.181	34.314	49.452	C.3	1	UNK1	0.000	
161	C169	17.020	32.818	50.532	C.3	1	UNK1	0.000	
162	 C11	26.924	29.664	23.506	C.3	1	UNK1	0.000	
163	 H18	23.068	40.139	35.016	 H	1	UNK1	0.000	
164	 H19	26.630	39.025	30.027	 H	1	UNK1	0.000	
165	 H20	16.754	31.798	50.228	 H	1	UNK1	0.000	
166	 H21	27.009	28.577	23.607	 H	1	UNK1	0.000	
167	 H22	27.739	30.004	22.858	 H	1	UNK1	0.000	
168	 H23	25.730	30.648	21.985	 H	1	UNK1	0.000	
169	 H24	24.958	29.202	22.655	 H	1	UNK1	0.000	
170	 H25	19.768	32.688	50.301	 H	1	UNK1	0.000	
171	 H01	14.962	32.995	51.164	 H	1	UNK1	0.000	
172	 H02	14.087	34.349	49.486	 H	1	UNK1	0.000	
173	 H03	17.543	32.730	51.492	 H	1	UNK1	0.000	
174	 H04	28.350	33.848	35.761	 H	1	UNK1	0.000	
175	 H05	28.561	36.798	36.543	 H	1	UNK1	0.000	
176	 H06	26.820	30.141	27.788	 H	1	UNK1	0.000	
177	 H07	28.935	30.770	29.716	 H	1	UNK1	0.000	
178	 H08	13.408	35.562	42.494	 H	1	UNK1	0.000	
179	 H09	17.232	38.403	33.045	 H	1	UNK1	0.000	
180	 H10	20.272	39.934	30.430	 H	1	UNK1	0.000	
181	 H11	18.224	40.099	31.791	 H	1	UNK1	0.000	
182	 H12	20.694	38.006	34.518	 H	1	UNK1	0.000	
183	 H13	16.750	35.217	39.532	 H	1	UNK1	0.000	
184	 H14	17.945	37.608	35.379	 H	1	UNK1	0.000	
185	 H15	16.895	36.736	34.293	 H	1	UNK1	0.000	
186	 H16	17.174	36.270	37.519	 H	1	UNK1	0.000	
187	 H17	24.027	36.517	27.743	 H	1	UNK1	0.000	
188	H170	21.249	30.933	33.863	 H	1	UNK1	0.000	
189	H171	20.900	32.965	43.997	 H	1	UNK1	0.000	
190	H173	20.815	37.965	44.495	 H	1	UNK1	0.000	
191	H175	20.450	31.394	35.793	 H	1	UNK1	0.000	
192	H176	19.865	36.403	43.411	 H	1	UNK1	0.000	
193	H178	21.423	34.846	37.273	 H	1	UNK1	0.000	
194	H179	21.571	33.552	45.874	 H	1	UNK1	0.000	
195	H181	22.907	34.666	34.105	 H	1	UNK1	0.000	
196	H182	19.173	35.192	44.985	 H	1	UNK1	0.000	
197	H184	25.811	31.822	30.867	 H	1	UNK1	0.000	
198	H185	20.085	36.910	46.464	 H	1	UNK1	0.000	
199	H186	21.453	40.771	33.501	 H	1	UNK1	0.000	
200	H187	26.008	32.515	32.881	 H	1	UNK1	0.000	
201	H188	21.603	37.671	46.818	 H	1	UNK1	0.000	
202	H189	22.126	40.094	31.525	 H	1	UNK1	0.000	
203	H191	22.824	34.688	48.314	 H	1	UNK1	0.000	
204	H192	20.295	36.961	32.807	 H	1	UNK1	0.000	
205	H194	22.291	36.327	48.605	 H	1	UNK1	0.000	
206	H195	21.402	35.882	33.524	 H	1	UNK1	0.000	
207	H197	22.717	35.424	46.240	 H	1	UNK1	0.000	
208	H199	24.488	34.917	32.113	 H	1	UNK1	0.000	
209	H200	25.730	36.037	43.184	 H	1	UNK1	0.000	
210	H202	28.948	34.181	30.479	 H	1	UNK1	0.000	
211	H203	15.345	32.492	48.410	 H	1	UNK1	0.000	
212	H206	15.337	36.025	47.294	 H	1	UNK1	0.000	
213	H207	23.118	37.822	32.528	 H	1	UNK1	0.000	
214	H208	27.097	35.294	30.121	 H	1	UNK1	0.000	
215	H209	16.650	35.517	46.246	 H	1	UNK1	0.000	
216	H210	22.654	38.995	29.791	 H	1	UNK1	0.000	
217	H211	24.811	34.555	30.192	 H	1	UNK1	0.000	
218	H212	14.222	33.681	46.628	 H	1	UNK1	0.000	
219	H213	22.765	35.939	31.818	 H	1	UNK1	0.000	
220	H214	27.845	32.721	33.841	 H	1	UNK1	0.000	
221	H217	29.410	33.394	33.490	 H	1	UNK1	0.000	
222	H220	29.435	32.189	31.646	 H	1	UNK1	0.000	
223	H223	27.767	31.747	31.834	 H	1	UNK1	0.000	
224	H225	20.888	33.792	25.416	 H	1	UNK1	0.000	
225	H226	27.898	36.447	34.300	 H	1	UNK1	0.000	
226	H228	20.291	34.074	26.995	 H	1	UNK1	0.000	
227	H229	24.445	36.011	33.825	 H	1	UNK1	0.000	
228	H231	21.779	35.847	25.673	 H	1	UNK1	0.000	
229	H232	25.996	36.657	34.661	 H	1	UNK1	0.000	
230	H234	23.131	34.986	26.313	 H	1	UNK1	0.000	
231	H240	22.927	37.895	27.686	 H	1	UNK1	0.000	
232	H243	21.070	36.668	27.537	 H	1	UNK1	0.000	
233	H245	23.899	36.278	29.992	 H	1	UNK1	0.000	
234	H246	18.295	35.144	40.350	 H	1	UNK1	0.000	
235	H247	20.294	35.369	29.026	 H	1	UNK1	0.000	
236	H248	16.963	34.861	43.808	 H	1	UNK1	0.000	
237	H249	22.540	34.183	31.382	 H	1	UNK1	0.000	
238	H250	17.458	31.149	44.354	 H	1	UNK1	0.000	
239	H251	20.487	33.466	29.353	 H	1	UNK1	0.000	
240	H252	15.528	32.242	44.188	 H	1	UNK1	0.000	
241	H253	24.010	30.904	30.508	 H	1	UNK1	0.000	
242	H254	14.862	35.056	40.728	 H	1	UNK1	0.000	
243	H255	23.562	31.124	28.564	 H	1	UNK1	0.000	
244	H256	16.242	35.822	41.570	 H	1	UNK1	0.000	
245	H257	20.981	37.214	29.799	 H	1	UNK1	0.000	
246	H258	14.860	33.236	42.290	 H	1	UNK1	0.000	
247	H259	21.515	31.780	28.770	 H	1	UNK1	0.000	
248	H266	17.739	31.177	39.772	 H	1	UNK1	0.000	
249	H268	16.349	32.983	39.567	 H	1	UNK1	0.000	
250	H269	23.687	33.719	24.592	 H	1	UNK1	0.000	
251	H271	22.187	32.891	24.251	 H	1	UNK1	0.000	
252	H272	18.058	31.274	37.716	 H	1	UNK1	0.000	
253	H273	24.239	32.530	22.714	 H	1	UNK1	0.000	
254	H274	25.698	35.411	41.118	 H	1	UNK1	0.000	
255	H275	23.057	31.277	23.024	 H	1	UNK1	0.000	
256	H276	22.942	34.195	43.553	 H	1	UNK1	0.000	
257	H277	28.851	31.343	24.673	 H	1	UNK1	0.000	
258	H278	19.852	31.567	42.560	 H	1	UNK1	0.000	
259	H279	28.941	29.790	25.491	 H	1	UNK1	0.000	
260	H280	23.629	32.753	40.876	 H	1	UNK1	0.000	
261	H281	26.615	32.243	23.913	 H	1	UNK1	0.000	
262	H282	19.579	30.831	40.583	 H	1	UNK1	0.000	
263	H283	24.447	30.221	24.694	 H	1	UNK1	0.000	
264	H284	24.581	34.014	42.086	 H	1	UNK1	0.000	
265	H285	26.468	29.685	25.595	 H	1	UNK1	0.000	
266	H286	21.585	36.347	41.935	 H	1	UNK1	0.000	
267	H288	23.081	32.412	37.551	 H	1	UNK1	0.000	
268	H290	24.152	32.912	39.078	 H	1	UNK1	0.000	
269	H292	21.922	32.657	41.962	 H	1	UNK1	0.000	
270	H293	29.237	31.791	26.928	 H	1	UNK1	0.000	
271	H294	21.497	31.391	40.419	 H	1	UNK1	0.000	
272	H296	18.786	34.393	42.420	 H	1	UNK1	0.000	
273	H298	20.362	34.919	40.876	 H	1	UNK1	0.000	
274	H299	24.003	33.841	27.730	 H	1	UNK1	0.000	
275	H301	27.607	34.290	27.952	 H	1	UNK1	0.000	
276	H302	25.369	34.317	38.689	 H	1	UNK1	0.000	
277	H303	25.665	34.624	28.258	 H	1	UNK1	0.000	
278	H305	29.138	32.879	28.807	 H	1	UNK1	0.000	
279	H306	28.222	38.437	41.010	 H	1	UNK1	0.000	
280	H308	27.551	36.851	41.426	 H	1	UNK1	0.000	
281	H310	24.365	38.863	40.619	 H	1	UNK1	0.000	
282	H311	27.819	33.370	26.092	 H	1	UNK1	0.000	
283	H312	29.081	36.449	39.547	 H	1	UNK1	0.000	
284	H313	25.131	38.144	32.694	 H	1	UNK1	0.000	
285	H314	28.413	37.831	38.642	 H	1	UNK1	0.000	
286	H315	26.033	39.543	32.210	 H	1	UNK1	0.000	
287	H318	23.412	37.296	41.667	 H	1	UNK1	0.000	
288	H320	26.383	39.019	39.661	 H	1	UNK1	0.000	
289	H322	25.474	37.629	38.281	 H	1	UNK1	0.000	
290	H323	23.277	38.521	34.415	 H	1	UNK1	0.000	
291	H324	23.986	36.407	37.257	 H	1	UNK1	0.000	
292	H325	23.898	40.985	32.638	 H	1	UNK1	0.000	
293	H326	23.607	36.678	39.377	 H	1	UNK1	0.000	
294	H327	24.979	40.464	33.900	 H	1	UNK1	0.000	
295	H328	27.038	35.308	39.542	 H	1	UNK1	0.000	
296	H334	13.806	36.157	45.532	 H	1	UNK1	0.000	
297	H335	25.944	37.404	30.178	 H	1	UNK1	0.000	
298	H336	15.303	36.867	44.966	 H	1	UNK1	0.000	
299	H337	25.476	38.454	28.826	 H	1	UNK1	0.000	
300	H339	24.443	40.043	30.386	 H	1	UNK1	0.000	
301	H340	27.371	40.218	44.460	 H	1	UNK1	0.000	
302	H341	18.913	36.419	37.273	 H	1	UNK1	0.000	
303	H342	26.553	41.751	44.203	 H	1	UNK1	0.000	
304	H344	24.373	40.715	44.728	 H	1	UNK1	0.000	
305	H346	25.494	40.472	46.058	 H	1	UNK1	0.000	
306	H348	25.720	38.199	45.714	 H	1	UNK1	0.000	
307	H349	16.843	35.230	35.620	 H	1	UNK1	0.000	
308	H350	26.617	37.944	43.668	 H	1	UNK1	0.000	
309	H351	19.728	35.926	35.082	 H	1	UNK1	0.000	
310	H352	27.200	40.086	42.172	 H	1	UNK1	0.000	
311	H353	19.418	34.533	38.404	 H	1	UNK1	0.000	
312	H354	25.814	41.158	42.082	 H	1	UNK1	0.000	
313	H356	24.268	39.548	42.667	 H	1	UNK1	0.000	
314	H358	17.418	34.640	47.877	 H	1	UNK1	0.000	
315	H361	17.898	34.682	33.010	 H	1	UNK1	0.000	
316	H362	19.492	31.605	44.699	 H	1	UNK1	0.000	
317	H363	16.760	33.220	37.686	 H	1	UNK1	0.000	
318	H366	19.371	31.843	46.676	 H	1	UNK1	0.000	
319	H368	19.157	31.745	48.971	 H	1	UNK1	0.000	
320	H371	16.990	33.179	35.612	 H	1	UNK1	0.000	
321	H373	21.792	31.368	30.849	 H	1	UNK1	0.000	
322	H375	19.296	35.327	31.453	 H	1	UNK1	0.000	
323	H376	21.128	32.826	48.233	 H	1	UNK1	0.000	
324	H377	22.772	35.814	35.879	 H	1	UNK1	0.000	
325	H378	18.133	34.463	49.856	 H	1	UNK1	0.000	
326	H379	24.395	32.489	35.443	 H	1	UNK1	0.000	
327	H380	21.168	34.608	50.019	 H	1	UNK1	0.000	
328	H381	24.551	31.280	33.627	 H	1	UNK1	0.000	
329	H382	20.025	35.559	49.076	 H	1	UNK1	0.000	
330	H383	22.891	30.637	32.611	 H	1	UNK1	0.000	
331	H384	23.026	39.146	45.574	 H	1	UNK1	0.000	
332	H385	22.461	31.448	35.539	 H	1	UNK1	0.000	
333	H386	23.699	37.692	46.280	 H	1	UNK1	0.000	
334	H388	24.086	35.670	44.728	 H	1	UNK1	0.000	
335	H389	21.021	34.084	35.119	 H	1	UNK1	0.000	
336	H390	19.113	34.769	47.071	 H	1	UNK1	0.000	
337	H391	19.701	33.217	31.164	 H	1	UNK1	0.000	
338	H392	22.693	38.053	43.443	 H	1	UNK1	0.000	
339	H393	19.899	31.726	32.552	 H	1	UNK1	0.000	
@<TRIPOS>BOND
1 1 4 1
2 1 7 1
3 1 180 1
4 2 3 1
5 2 6 1
6 2 182 1
7 3 4 1
8 3 43 1
9 3 199 1
10 4 8 1
11 4 202 1
12 5 10 1
13 5 57 1
14 5 204 1
15 5 206 1
16 6 7 1
17 6 51 1
18 7 181 1
19 8 9 1
20 8 10 1
21 8 213 1
22 9 16 1
23 9 46 1
24 9 216 1
25 10 22 1
26 10 219 1
27 11 12 1
28 11 13 1
29 11 224 1
30 11 226 1
31 12 15 1
32 12 228 1
33 12 230 1
34 13 23 1
35 13 24 1
36 14 15 1
37 14 16 1
38 14 187 1
39 14 231 1
40 15 17 1
41 15 232 1
42 16 22 1
43 16 233 1
44 17 19 1
45 17 22 1
46 17 235 1
47 18 19 1
48 18 56 1
49 18 65 1
50 18 237 1
51 19 23 1
52 19 239 1
53 20 21 1
54 20 56 1
55 20 72 1
56 20 241 1
57 21 23 1
58 21 36 1
59 21 243 1
60 22 245 1
61 23 247 1
62 24 26 1
63 24 33 1
64 25 30 1
65 25 168 1
66 25 169 1
67 26 27 1
68 26 250 1
69 26 251 1
70 27 30 1
71 27 253 1
72 27 255 1
73 28 31 1
74 28 34 1
75 28 257 1
76 28 259 1
77 29 30 1
78 29 31 1
79 29 32 1
80 29 261 1
81 30 263 1
82 31 162 1
83 31 265 1
84 32 33 1
85 32 41 1
86 33 36 1
87 34 35 1
88 34 41 1
89 34 270 1
90 35 40 1
91 35 176 1
92 36 38 1
93 36 274 1
94 37 38 1
95 37 39 1
96 37 41 1
97 37 275 1
98 38 80 1
99 38 277 1
100 39 40 1
101 39 77 1
102 39 278 1
103 40 177 1
104 41 282 1
105 42 44 1
106 42 46 1
107 42 284 1
108 42 286 1
109 43 44 1
110 43 163 1
111 43 290 1
112 44 292 1
113 44 294 1
114 45 46 1
115 45 164 1
116 45 297 1
117 45 299 1
118 46 300 1
119 47 48 1
120 47 50 1
121 47 186 1
122 47 302 1
123 48 49 1
124 48 55 1
125 48 307 1
126 49 52 1
127 49 53 1
128 49 309 1
129 50 54 1
130 50 89 1
131 50 311 1
132 51 52 1
133 51 179 1
134 52 184 1
135 52 185 1
136 53 57 1
137 53 63 1
138 53 315 1
139 54 55 1
140 54 98 1
141 54 317 1
142 55 68 1
143 55 320 1
144 56 61 1
145 56 321 1
146 57 65 1
147 57 322 1
148 58 70 1
149 58 71 1
150 58 122 1
151 58 324 1
152 59 60 1
153 59 62 1
154 59 71 1
155 59 326 1
156 60 61 1
157 60 73 1
158 60 328 1
159 61 67 1
160 61 330 1
161 62 64 1
162 62 67 1
163 62 332 1
164 63 66 1
165 63 68 1
166 64 69 1
167 64 70 1
168 64 335 1
169 65 66 1
170 65 337 1
171 66 67 1
172 66 339 1
173 67 188 1
174 68 69 1
175 69 114 1
176 69 191 1
177 70 106 1
178 70 193 1
179 71 84 1
180 71 195 1
181 72 73 1
182 72 80 1
183 72 197 1
184 73 76 1
185 73 200 1
186 74 83 1
187 74 86 1
188 74 174 1
189 75 78 1
190 75 81 1
191 75 83 1
192 76 78 1
193 76 84 1
194 76 208 1
195 77 79 1
196 77 82 1
197 77 210 1
198 78 79 1
199 79 80 1
200 79 214 1
201 80 217 1
202 81 82 1
203 81 220 1
204 81 221 1
205 82 222 1
206 82 223 1
207 83 85 1
208 83 225 1
209 84 85 1
210 84 227 1
211 85 87 1
212 85 229 1
213 86 118 1
214 86 175 1
215 87 118 1
216 87 122 1
217 88 94 1
218 88 96 1
219 88 97 1
220 89 96 1
221 89 183 1
222 89 234 1
223 90 92 1
224 90 94 1
225 90 127 1
226 90 236 1
227 91 92 1
228 91 97 1
229 91 136 1
230 91 238 1
231 92 135 1
232 92 240 1
233 93 94 1
234 93 125 1
235 93 242 1
236 93 244 1
237 94 246 1
238 95 96 1
239 95 98 1
240 95 103 1
241 95 248 1
242 96 249 1
243 97 101 1
244 98 114 1
245 98 252 1
246 99 104 1
247 99 119 1
248 99 123 1
249 99 254 1
250 100 104 1
251 100 105 1
252 100 144 1
253 100 256 1
254 101 103 1
255 101 110 1
256 101 258 1
257 102 104 1
258 102 107 1
259 102 108 1
260 102 260 1
261 103 109 1
262 103 262 1
263 104 264 1
264 105 111 1
265 105 149 1
266 105 266 1
267 106 107 1
268 106 112 1
269 106 267 1
270 107 113 1
271 107 268 1
272 108 109 1
273 108 111 1
274 108 269 1
275 109 112 1
276 109 271 1
277 110 111 1
278 110 147 1
279 110 272 1
280 111 273 1
281 112 114 1
282 113 122 1
283 113 123 1
284 113 276 1
285 115 117 1
286 115 120 1
287 115 279 1
288 115 280 1
289 116 119 1
290 116 120 1
291 116 133 1
292 116 281 1
293 117 124 1
294 117 283 1
295 117 285 1
296 118 124 1
297 119 155 1
298 119 287 1
299 120 121 1
300 120 288 1
301 121 123 1
302 121 124 1
303 121 289 1
304 122 291 1
305 123 293 1
306 124 295 1
307 125 127 1
308 125 178 1
309 126 127 1
310 126 157 1
311 126 296 1
312 126 298 1
313 128 129 1
314 128 132 1
315 128 301 1
316 128 303 1
317 129 130 1
318 129 304 1
319 129 305 1
320 130 131 1
321 130 143 1
322 130 306 1
323 131 133 1
324 131 155 1
325 131 308 1
326 132 133 1
327 132 310 1
328 132 312 1
329 133 313 1
330 134 137 1
331 134 141 1
332 134 156 1
333 134 314 1
334 135 137 1
335 135 158 1
336 136 138 1
337 136 147 1
338 136 316 1
339 137 138 1
340 138 145 1
341 138 318 1
342 139 140 1
343 139 141 1
344 139 170 1
345 139 319 1
346 140 142 1
347 140 145 1
348 140 323 1
349 141 161 1
350 141 325 1
351 142 153 1
352 142 327 1
353 142 329 1
354 143 146 1
355 143 331 1
356 143 333 1
357 144 146 1
358 144 155 1
359 144 334 1
360 145 150 1
361 145 336 1
362 146 148 1
363 146 338 1
364 147 151 1
365 147 189 1
366 148 149 1
367 148 152 1
368 148 190 1
369 149 151 1
370 149 192 1
371 150 151 1
372 150 154 1
373 150 194 1
374 151 196 1
375 152 154 1
376 152 198 1
377 152 201 1
378 153 154 1
379 153 203 1
380 153 205 1
381 154 207 1
382 155 209 1
383 156 158 1
384 156 160 1
385 156 211 1
386 157 158 1
387 157 212 1
388 157 215 1
389 158 218 1
390 159 160 1
391 159 161 1
392 159 171 1
393 160 172 1
394 161 165 1
395 161 173 1
396 25 162 1
397 162 166 1
398 162 167 1
@<TRIPOS>SUBSTRUCTURE
1	UNK1	1	GROUP	1 ****	UNK
