# created with PyMOL 2.5.5
@<TRIPOS>MOLECULE
full_87
78 98 1                 
SMALL
USER_CHARGES
@<TRIPOS>ATOM
1	 C01	11.099	4.741	29.384	C.3	1	UNK1	0.000	
2	 C02	9.616	5.063	29.120	C.3	1	UNK1	0.000	
3	 C03	8.830	3.978	29.877	C.3	1	UNK1	0.000	
4	 C04	9.261	6.504	29.558	C.3	1	UNK1	0.000	
5	 C05	6.667	1.696	30.692	C.3	1	UNK1	0.000	
6	 C06	6.399	3.190	30.554	C.3	1	UNK1	0.000	
7	 C07	7.330	4.145	29.792	C.3	1	UNK1	0.000	
8	 C08	6.930	5.482	30.397	C.3	1	UNK1	0.000	
9	 C09	7.121	0.968	29.437	C.3	1	UNK1	0.000	
10	 C10	7.769	6.664	29.963	C.3	1	UNK1	0.000	
11	 C11	9.464	7.648	28.483	C.3	1	UNK1	0.000	
12	 C12	10.627	7.703	27.452	C.3	1	UNK1	0.000	
13	 C13	10.773	6.521	26.496	C.3	1	UNK1	0.000	
14	 C14	11.952	8.145	28.062	C.3	1	UNK1	0.000	
15	 C15	11.799	9.546	28.634	C.3	1	UNK1	0.000	
16	 C16	10.683	9.603	29.685	C.3	1	UNK1	0.000	
17	 C17	10.556	11.054	30.194	C.3	1	UNK1	0.000	
18	 C18	8.176	9.165	30.254	C.3	1	UNK1	0.000	
19	 C19	8.415	10.243	31.320	C.3	1	UNK1	0.000	
20	 C20	7.543	7.877	30.851	C.3	1	UNK1	0.000	
21	 C21	9.164	11.428	30.706	C.3	1	UNK1	0.000	
22	 C22	9.330	9.043	29.185	C.3	1	UNK1	0.000	
23	 C23	8.985	1.356	31.844	C.3	1	UNK1	0.000	
24	 C24	11.325	3.640	36.495	C.3	1	UNK1	0.000	
25	 C25	6.917	2.646	32.910	C.3	1	UNK1	0.000	
26	 C26	6.285	3.736	31.998	C.3	1	UNK1	0.000	
27	 C27	7.611	3.206	34.148	C.3	1	UNK1	0.000	
28	 C28	9.684	2.361	35.105	C.3	1	UNK1	0.000	
29	 C29	8.171	2.328	35.292	C.3	1	UNK1	0.000	
30	 C30	6.614	5.262	31.894	C.3	1	UNK1	0.000	
31	 C31	8.696	4.247	33.816	C.3	1	UNK1	0.000	
32	 C32	9.976	3.725	34.453	C.3	1	UNK1	0.000	
33	 C33	10.726	4.608	35.430	C.3	1	UNK1	0.000	
34	 C34	7.481	1.521	31.992	C.3	1	UNK1	0.000	
35	 C35	7.523	0.948	35.336	C.3	1	UNK1	0.000	
36	 C36	8.147	5.636	34.129	C.3	1	UNK1	0.000	
37	 C37	10.701	2.229	36.258	C.3	1	UNK1	0.000	
38	 C38	7.268	6.210	32.965	C.3	1	UNK1	0.000	
39	 C39	10.018	5.879	35.950	C.3	1	UNK1	0.000	
40	 C40	8.996	6.587	34.985	C.3	1	UNK1	0.000	
41	 C41	12.392	6.369	37.050	C.3	1	UNK1	0.000	
42	 C42	10.999	6.880	36.649	C.3	1	UNK1	0.000	
43	 C43	7.599	7.638	32.405	C.3	1	UNK1	0.000	
44	 C44	9.378	7.960	34.401	C.3	1	UNK1	0.000	
45	 C45	9.173	9.703	32.525	C.3	1	UNK1	0.000	
46	 C46	8.491	8.554	33.266	C.3	1	UNK1	0.000	
47	 C47	10.909	8.241	34.395	C.3	1	UNK1	0.000	
48	 C48	11.656	7.392	33.357	C.3	1	UNK1	0.000	
49	 C49	11.339	8.173	35.869	C.3	1	UNK1	0.000	
50	 C50	15.991	8.062	31.451	C.3	1	UNK1	0.000	
51	 C51	15.080	9.422	35.952	C.3	1	UNK1	0.000	
52	 C52	17.227	9.912	32.736	C.3	1	UNK1	0.000	
53	 C53	16.023	9.540	31.862	C.3	1	UNK1	0.000	
54	 C54	13.212	7.640	37.351	C.3	1	UNK1	0.000	
55	 C55	14.018	7.823	34.196	C.3	1	UNK1	0.000	
56	 C56	15.736	8.268	36.774	C.3	1	UNK1	0.000	
57	 C57	16.846	8.798	37.687	C.3	1	UNK1	0.000	
58	 C58	16.003	10.294	35.000	C.3	1	UNK1	0.000	
59	 C59	13.788	8.952	35.202	C.3	1	UNK1	0.000	
60	 C60	14.632	7.648	30.875	C.3	1	UNK1	0.000	
61	 C61	16.588	11.510	35.778	C.3	1	UNK1	0.000	
62	 C62	13.075	7.872	32.984	C.3	1	UNK1	0.000	
63	 C63	17.103	9.520	34.223	C.3	1	UNK1	0.000	
64	 C64	13.634	6.982	31.842	C.3	1	UNK1	0.000	
65	 C65	12.756	8.623	36.272	C.3	1	UNK1	0.000	
66	 C66	17.251	12.563	34.901	C.3	1	UNK1	0.000	
67	 C67	10.437	1.332	37.492	C.3	1	UNK1	0.000	
68	 C68	11.410	4.175	37.935	C.3	1	UNK1	0.000	
69	 C69	9.251	1.720	38.374	C.3	1	UNK1	0.000	
70	 C70	12.502	5.256	38.100	C.3	1	UNK1	0.000	
71	 C71	10.395	-0.157	37.122	C.3	1	UNK1	0.000	
72	 C72	12.685	5.680	39.579	C.3	1	UNK1	0.000	
73	 C73	11.430	6.286	40.222	C.3	1	UNK1	0.000	
74	 C74	16.235	7.382	39.598	C.3	1	UNK1	0.000	
75	 C75	15.073	6.683	38.878	C.3	1	UNK1	0.000	
76	 C76	13.908	6.580	39.900	C.3	1	UNK1	0.000	
77	 C77	17.356	7.755	38.658	C.3	1	UNK1	0.000	
78	 C78	14.714	7.294	37.470	C.3	1	UNK1	0.000	
@<TRIPOS>BOND
1 1 2 1
2 2 3 1
3 2 4 1
4 3 7 1
5 4 10 1
6 4 11 1
7 5 6 1
8 5 9 1
9 5 34 1
10 6 7 1
11 6 26 1
12 7 8 1
13 8 10 1
14 8 30 1
15 10 20 1
16 11 12 1
17 11 22 1
18 12 13 1
19 12 14 1
20 14 15 1
21 15 16 1
22 16 17 1
23 16 22 1
24 17 21 1
25 18 19 1
26 18 20 1
27 18 22 1
28 19 21 1
29 19 45 1
30 20 43 1
31 23 34 1
32 24 33 1
33 24 37 1
34 24 68 1
35 25 26 1
36 25 27 1
37 25 34 1
38 26 30 1
39 27 29 1
40 27 31 1
41 28 29 1
42 28 32 1
43 28 37 1
44 29 35 1
45 30 38 1
46 31 32 1
47 31 36 1
48 32 33 1
49 33 39 1
50 36 38 1
51 36 40 1
52 37 67 1
53 38 43 1
54 39 40 1
55 39 42 1
56 40 44 1
57 41 42 1
58 41 54 1
59 41 70 1
60 42 49 1
61 43 46 1
62 44 46 1
63 44 47 1
64 45 46 1
65 47 48 1
66 47 49 1
67 48 62 1
68 49 65 1
69 50 53 1
70 50 60 1
71 51 56 1
72 51 58 1
73 51 59 1
74 52 53 1
75 52 63 1
76 54 65 1
77 54 78 1
78 55 59 1
79 55 62 1
80 56 57 1
81 56 78 1
82 57 77 1
83 58 61 1
84 58 63 1
85 59 65 1
86 60 64 1
87 61 66 1
88 62 64 1
89 67 69 1
90 67 71 1
91 68 70 1
92 70 72 1
93 72 73 1
94 72 76 1
95 74 75 1
96 74 77 1
97 75 76 1
98 75 78 1
@<TRIPOS>SUBSTRUCTURE
1	UNK1	1	GROUP	1 ****	UNK
