# created with PyMOL 2.5.5
@<TRIPOS>MOLECULE
full_87
367 437 1               
SMALL
USER_CHARGES
@<TRIPOS>ATOM
1	 C02	47.604	31.392	24.734	C.3	1	UNK1	0.000	
2	 C03	50.104	31.081	24.906	C.2	1	UNK1	0.000	
3	 C04	45.297	30.935	25.809	C.2	1	UNK1	0.000	
4	 C05	48.946	31.693	25.388	C.2	1	UNK1	0.000	
5	 C06	51.339	31.407	25.454	C.2	1	UNK1	0.000	
6	 C07	56.529	31.857	27.481	C.3	1	UNK1	0.000	
7	 C08	54.849	30.311	28.036	C.3	1	UNK1	0.000	
8	 C09	52.981	31.972	28.370	C.3	1	UNK1	0.000	
9	 C11	56.360	30.411	27.916	C.3	1	UNK1	0.000	
10	 C15	57.943	32.403	27.635	C.3	1	UNK1	0.000	
11	 C16	42.992	37.376	28.246	C.3	1	UNK1	0.000	
12	 C17	41.947	37.840	30.480	C.3	1	UNK1	0.000	
13	 C18	41.695	37.257	29.074	C.3	1	UNK1	0.000	
14	 C19	43.203	37.233	31.179	C.3	1	UNK1	0.000	
15	 C20	43.987	36.331	28.844	C.3	1	UNK1	0.000	
16	 C21	50.381	34.073	27.958	C.2	1	UNK1	0.000	
17	 C22	45.199	36.045	27.940	C.3	1	UNK1	0.000	
18	 C23	46.476	35.595	28.668	C.3	1	UNK1	0.000	
19	 C24	46.458	31.594	25.666	C.2	1	UNK1	0.000	
20	 C25	46.651	34.124	29.109	C.3	1	UNK1	0.000	
21	 C26	45.540	32.457	27.557	C.2	1	UNK1	0.000	
22	 C27	45.481	33.135	28.869	C.3	1	UNK1	0.000	
23	 C28	47.818	33.351	26.967	C.3	1	UNK1	0.000	
24	 C29	46.586	32.553	26.732	C.2	1	UNK1	0.000	
25	 C30	47.992	33.652	28.492	C.3	1	UNK1	0.000	
26	 C31	49.049	32.646	26.437	C.2	1	UNK1	0.000	
27	 C32	50.288	33.039	26.970	C.2	1	UNK1	0.000	
28	 C33	45.483	37.262	27.043	C.3	1	UNK1	0.000	
29	 C34	44.326	36.565	30.334	C.3	1	UNK1	0.000	
30	 C35	45.771	36.946	30.663	C.2	1	UNK1	0.000	
31	 C36	48.225	36.364	30.334	C.2	1	UNK1	0.000	
32	 C37	49.350	35.639	29.677	C.2	1	UNK1	0.000	
33	 C38	46.835	36.372	29.914	C.2	1	UNK1	0.000	
34	 C39	49.254	34.546	28.708	C.2	1	UNK1	0.000	
35	 C40	48.483	37.123	31.496	C.2	1	UNK1	0.000	
36	 C41	54.420	31.644	28.689	C.3	1	UNK1	0.000	
37	 C42	51.432	32.380	26.461	C.2	1	UNK1	0.000	
38	 C43	56.686	34.552	27.046	C.3	1	UNK1	0.000	
39	 C44	55.546	32.641	28.366	C.3	1	UNK1	0.000	
40	 C45	52.785	34.244	27.276	C.3	1	UNK1	0.000	
41	 C46	52.787	32.730	27.056	C.3	1	UNK1	0.000	
42	 C47	55.441	34.149	27.973	C.3	1	UNK1	0.000	
43	 C48	54.171	34.885	27.457	C.3	1	UNK1	0.000	
44	 C49	51.629	34.665	28.202	C.2	1	UNK1	0.000	
45	 C50	54.007	36.246	28.189	C.3	1	UNK1	0.000	
46	 C51	50.893	36.895	31.122	C.2	1	UNK1	0.000	
47	 C52	54.433	38.297	30.374	C.3	1	UNK1	0.000	
48	 C53	53.461	37.081	30.619	C.3	1	UNK1	0.000	
49	 C54	50.685	36.052	30.008	C.2	1	UNK1	0.000	
50	 C55	51.794	35.617	29.230	C.2	1	UNK1	0.000	
51	 C56	53.226	36.038	29.508	C.3	1	UNK1	0.000	
52	 C57	54.991	38.356	28.959	C.3	1	UNK1	0.000	
53	 C58	55.336	36.979	28.425	C.3	1	UNK1	0.000	
54	 C59	56.136	37.256	27.150	C.3	1	UNK1	0.000	
55	 C60	56.825	36.031	26.463	C.3	1	UNK1	0.000	
56	 C61	56.858	38.617	27.418	C.3	1	UNK1	0.000	
57	 C62	57.974	33.942	27.651	C.3	1	UNK1	0.000	
58	 C63	58.207	36.254	25.801	C.3	1	UNK1	0.000	
59	 C64	58.355	37.581	25.067	C.3	1	UNK1	0.000	
60	 C65	58.936	38.690	25.953	C.3	1	UNK1	0.000	
61	 C66	65.833	39.423	26.973	C.3	1	UNK1	0.000	
62	 C68	67.071	38.549	27.261	C.3	1	UNK1	0.000	
63	 C69	41.871	38.048	25.988	C.3	1	UNK1	0.000	
64	 C70	40.477	37.433	25.940	C.3	1	UNK1	0.000	
65	 C71	42.922	37.194	26.711	C.3	1	UNK1	0.000	
66	 C72	39.955	36.876	27.255	C.3	1	UNK1	0.000	
67	 C73	44.306	37.554	26.114	C.3	1	UNK1	0.000	
68	 C75	40.360	37.713	28.465	C.3	1	UNK1	0.000	
69	 C76	41.740	40.368	29.589	C.3	1	UNK1	0.000	
70	 C77	49.812	37.303	31.931	C.2	1	UNK1	0.000	
71	 C78	46.074	37.630	31.843	C.2	1	UNK1	0.000	
72	 C79	52.216	37.627	31.341	C.3	1	UNK1	0.000	
73	 C80	55.485	38.376	31.468	C.2	1	UNK1	0.000	
74	 C81	56.252	39.181	28.743	C.3	1	UNK1	0.000	
75	 C82	56.816	38.799	31.180	C.2	1	UNK1	0.000	
76	 C83	61.028	39.913	26.615	C.3	1	UNK1	0.000	
77	 C84	62.544	39.954	26.918	C.3	1	UNK1	0.000	
78	 C85	60.466	38.617	26.034	C.3	1	UNK1	0.000	
79	 C86	58.400	38.662	27.386	C.3	1	UNK1	0.000	
80	 C87	60.333	40.387	27.905	C.3	1	UNK1	0.000	
81	 C88	59.536	39.536	30.647	C.2	1	UNK1	0.000	
82	 C89	58.568	39.561	29.635	C.2	1	UNK1	0.000	
83	 C90	61.367	40.314	29.040	C.3	1	UNK1	0.000	
84	 C91	60.883	39.783	30.364	C.2	1	UNK1	0.000	
85	 C92	57.228	39.165	29.895	C.2	1	UNK1	0.000	
86	 C93	62.704	39.793	28.432	C.3	1	UNK1	0.000	
87	 C94	58.902	39.885	28.190	C.3	1	UNK1	0.000	
88	 C95	63.430	39.047	26.069	C.3	1	UNK1	0.000	
89	 C96	64.657	38.471	26.772	C.3	1	UNK1	0.000	
90	 C97	68.841	40.049	28.227	C.2	1	UNK1	0.000	
91	 C98	68.754	39.431	29.492	C.2	1	UNK1	0.000	
92	 C99	68.363	39.308	27.020	C.3	1	UNK1	0.000	
93	C100	64.307	37.772	28.074	C.3	1	UNK1	0.000	
94	C101	63.629	38.358	30.398	C.3	1	UNK1	0.000	
95	C102	67.955	38.281	29.756	C.2	1	UNK1	0.000	
96	C103	67.016	36.527	31.344	C.3	1	UNK1	0.000	
97	C104	65.136	38.093	30.353	C.3	1	UNK1	0.000	
98	C105	63.165	38.411	28.911	C.3	1	UNK1	0.000	
99	C106	68.062	37.615	31.055	C.2	1	UNK1	0.000	
100	C107	65.502	37.477	29.007	C.3	1	UNK1	0.000	
101	C108	66.997	37.777	28.610	C.3	1	UNK1	0.000	
102	C109	70.200	41.209	30.342	C.2	1	UNK1	0.000	
103	C110	69.536	41.256	28.045	C.2	1	UNK1	0.000	
104	C112	70.187	41.854	29.112	C.2	1	UNK1	0.000	
105	C113	69.068	38.053	31.991	C.2	1	UNK1	0.000	
106	C114	69.523	39.991	30.527	C.2	1	UNK1	0.000	
107	C115	69.666	39.303	31.733	C.2	1	UNK1	0.000	
108	C117	41.993	39.382	30.736	C.3	1	UNK1	0.000	
109	C118	43.653	38.321	32.150	C.3	1	UNK1	0.000	
110	C119	66.999	35.765	32.659	C.3	1	UNK1	0.000	
111	C121	43.883	41.629	29.992	C.3	1	UNK1	0.000	
112	C122	42.364	41.730	29.871	C.3	1	UNK1	0.000	
113	C123	44.362	40.297	30.576	C.3	1	UNK1	0.000	
114	C124	43.305	39.665	31.492	C.3	1	UNK1	0.000	
115	C125	47.422	37.715	32.259	C.2	1	UNK1	0.000	
116	C126	49.016	38.464	33.925	C.2	1	UNK1	0.000	
117	C127	46.701	38.953	34.250	C.2	1	UNK1	0.000	
118	C128	47.711	38.387	33.474	C.2	1	UNK1	0.000	
119	C129	45.388	38.885	33.826	C.2	1	UNK1	0.000	
120	C130	50.054	37.928	33.166	C.2	1	UNK1	0.000	
121	C131	45.070	38.237	32.626	C.2	1	UNK1	0.000	
122	C132	55.639	37.658	35.111	C.3	1	UNK1	0.000	
123	C133	55.931	39.549	36.862	C.3	1	UNK1	0.000	
124	C134	56.127	38.125	33.780	C.2	1	UNK1	0.000	
125	C135	54.144	37.970	34.913	C.3	1	UNK1	0.000	
126	C136	51.414	37.856	33.785	C.3	1	UNK1	0.000	
127	C137	53.865	37.580	33.419	C.3	1	UNK1	0.000	
128	C138	56.458	38.227	36.309	C.3	1	UNK1	0.000	
129	C139	55.155	38.068	32.791	C.2	1	UNK1	0.000	
130	C140	52.549	38.127	32.806	C.3	1	UNK1	0.000	
131	C141	60.072	39.231	33.073	C.2	1	UNK1	0.000	
132	C142	59.142	39.208	31.979	C.2	1	UNK1	0.000	
133	C143	61.787	39.664	31.414	C.2	1	UNK1	0.000	
134	C144	59.612	38.938	34.373	C.2	1	UNK1	0.000	
135	C145	61.528	39.666	35.988	C.3	1	UNK1	0.000	
136	C146	57.981	38.185	35.993	C.3	1	UNK1	0.000	
137	C147	61.394	39.516	32.751	C.2	1	UNK1	0.000	
138	C148	62.539	39.861	33.652	C.3	1	UNK1	0.000	
139	C149	59.080	39.054	36.691	C.3	1	UNK1	0.000	
140	C150	60.292	38.811	35.720	C.3	1	UNK1	0.000	
141	C151	58.286	38.568	34.563	C.2	1	UNK1	0.000	
142	C152	61.888	39.763	37.513	C.3	1	UNK1	0.000	
143	C153	62.643	39.175	35.016	C.3	1	UNK1	0.000	
144	C154	57.405	38.520	33.514	C.2	1	UNK1	0.000	
145	C155	57.788	38.855	32.213	C.2	1	UNK1	0.000	
146	C156	65.149	37.382	32.841	C.3	1	UNK1	0.000	
147	C157	63.278	39.616	31.245	C.3	1	UNK1	0.000	
148	C158	68.854	37.179	35.976	C.3	1	UNK1	0.000	
149	C159	66.357	36.731	33.636	C.3	1	UNK1	0.000	
150	C160	63.760	39.724	32.707	C.3	1	UNK1	0.000	
151	C161	67.208	37.900	34.165	C.3	1	UNK1	0.000	
152	C162	66.312	38.479	35.216	C.2	1	UNK1	0.000	
153	C163	64.939	38.889	33.188	C.3	1	UNK1	0.000	
154	C164	64.044	39.237	35.543	C.2	1	UNK1	0.000	
155	C165	66.477	38.151	36.560	C.2	1	UNK1	0.000	
156	C166	65.102	38.986	34.696	C.2	1	UNK1	0.000	
157	C167	68.658	37.785	34.561	C.3	1	UNK1	0.000	
158	C168	64.294	39.163	36.892	C.2	1	UNK1	0.000	
159	C169	65.529	37.055	31.390	C.3	1	UNK1	0.000	
160	C170	67.557	37.133	36.867	C.3	1	UNK1	0.000	
161	C172	69.512	37.343	33.333	C.3	1	UNK1	0.000	
162	C175	71.576	36.894	34.913	C.3	1	UNK1	0.000	
163	C176	71.034	37.500	33.616	C.3	1	UNK1	0.000	
164	C177	70.889	35.604	35.355	C.3	1	UNK1	0.000	
165	C178	69.499	35.776	36.037	C.3	1	UNK1	0.000	
166	C180	69.289	36.313	38.602	C.3	1	UNK1	0.000	
167	C181	65.545	36.925	39.383	C.3	1	UNK1	0.000	
168	C182	67.737	36.210	40.514	C.3	1	UNK1	0.000	
169	C184	66.949	36.340	39.215	C.3	1	UNK1	0.000	
170	C185	69.101	35.728	40.023	C.3	1	UNK1	0.000	
171	C186	67.963	37.080	38.337	C.3	1	UNK1	0.000	
172	C187	65.291	38.356	38.899	C.3	1	UNK1	0.000	
173	C188	71.591	33.987	38.630	C.2	1	UNK1	0.000	
174	C189	70.995	34.680	37.581	C.2	1	UNK1	0.000	
175	C191	69.601	35.243	37.520	C.3	1	UNK1	0.000	
176	C193	58.980	38.012	40.495	C.3	1	UNK1	0.000	
177	C194	58.548	38.908	39.307	C.3	1	UNK1	0.000	
178	C195	60.417	37.481	40.396	C.3	1	UNK1	0.000	
179	C196	61.418	38.478	39.782	C.3	1	UNK1	0.000	
180	C197	60.855	39.250	38.558	C.3	1	UNK1	0.000	
181	C198	62.747	37.784	39.467	C.3	1	UNK1	0.000	
182	C199	59.494	38.622	38.097	C.3	1	UNK1	0.000	
183	C200	63.804	38.846	39.157	C.3	1	UNK1	0.000	
184	C201	63.378	39.680	37.935	C.3	1	UNK1	0.000	
185	C202	65.450	38.552	37.412	C.2	1	UNK1	0.000	
186	C203	73.590	33.701	37.288	C.2	1	UNK1	0.000	
187	C204	72.894	33.504	38.483	C.2	1	UNK1	0.000	
188	C205	71.693	34.873	36.392	C.2	1	UNK1	0.000	
189	C206	72.987	34.382	36.232	C.2	1	UNK1	0.000	
190	 C12	57.025	38.906	39.147	C.3	1	UNK1	0.000	
191	 C13	44.571	31.439	27.035	C.2	1	UNK1	0.000	
192	 C67	56.514	40.005	38.204	C.3	1	UNK1	0.000	
193	1H00	71.065	33.798	39.559	 H	1	UNK1	0.000	
194	1H01	68.893	34.409	37.620	 H	1	UNK1	0.000	
195	 H01	43.625	31.912	26.751	 H	1	UNK1	0.000	
196	1H02	64.865	36.253	38.841	 H	1	UNK1	0.000	
197	 H02	44.511	33.607	29.019	 H	1	UNK1	0.000	
198	1H03	65.263	36.849	40.441	 H	1	UNK1	0.000	
199	 H03	44.950	30.122	25.190	 H	1	UNK1	0.000	
200	1H04	67.442	36.797	28.371	 H	1	UNK1	0.000	
201	 H04	47.597	30.359	24.366	 H	1	UNK1	0.000	
202	1H05	67.285	35.499	41.212	 H	1	UNK1	0.000	
203	 H05	44.433	36.993	25.179	 H	1	UNK1	0.000	
204	1H06	63.935	36.828	27.678	 H	1	UNK1	0.000	
205	 H06	50.050	30.349	24.104	 H	1	UNK1	0.000	
206	1H07	67.335	35.893	30.516	 H	1	UNK1	0.000	
207	 H07	46.374	37.102	26.424	 H	1	UNK1	0.000	
208	1H08	65.641	39.042	30.530	 H	1	UNK1	0.000	
209	 H08	39.782	38.202	25.577	 H	1	UNK1	0.000	
210	1H09	62.246	37.839	28.780	 H	1	UNK1	0.000	
211	 H09	52.234	30.911	25.084	 H	1	UNK1	0.000	
212	1H10	55.764	36.564	35.125	 H	1	UNK1	0.000	
213	 H10	56.214	31.926	26.430	 H	1	UNK1	0.000	
214	1H11	66.427	34.843	32.559	 H	1	UNK1	0.000	
215	 H11	54.545	29.446	28.634	 H	1	UNK1	0.000	
216	1H12	53.932	39.038	35.051	 H	1	UNK1	0.000	
217	 H12	54.405	30.201	27.039	 H	1	UNK1	0.000	
218	1H13	53.849	36.481	33.385	 H	1	UNK1	0.000	
219	 H13	52.572	32.531	29.220	 H	1	UNK1	0.000	
220	1H14	58.273	37.127	36.088	 H	1	UNK1	0.000	
221	 H14	52.409	31.033	28.362	 H	1	UNK1	0.000	
222	1H15	58.823	40.121	36.667	 H	1	UNK1	0.000	
223	 H15	70.289	39.770	32.491	 H	1	UNK1	0.000	
224	1H16	41.190	39.577	31.466	 H	1	UNK1	0.000	
225	 H16	69.424	36.277	33.153	 H	1	UNK1	0.000	
226	1H17	43.004	38.218	33.035	 H	1	UNK1	0.000	
227	 H17	56.835	30.223	28.886	 H	1	UNK1	0.000	
228	1H18	54.879	39.345	37.065	 H	1	UNK1	0.000	
229	 H18	56.766	29.703	27.188	 H	1	UNK1	0.000	
230	1H19	60.589	37.755	35.822	 H	1	UNK1	0.000	
231	 H19	58.882	34.229	27.117	 H	1	UNK1	0.000	
232	1H20	62.420	40.860	34.070	 H	1	UNK1	0.000	
233	 H20	58.416	32.032	28.552	 H	1	UNK1	0.000	
234	1H21	63.628	40.526	30.745	 H	1	UNK1	0.000	
235	 H21	58.095	34.304	28.679	 H	1	UNK1	0.000	
236	1H22	44.242	42.459	30.614	 H	1	UNK1	0.000	
237	 H22	42.174	38.207	24.945	 H	1	UNK1	0.000	
238	1H23	44.345	41.766	29.007	 H	1	UNK1	0.000	
239	 H23	40.344	38.768	28.196	 H	1	UNK1	0.000	
240	1H24	41.947	42.137	30.801	 H	1	UNK1	0.000	
241	 H24	70.770	41.653	31.155	 H	1	UNK1	0.000	
242	1H25	42.105	42.439	29.077	 H	1	UNK1	0.000	
243	 H25	70.726	42.787	28.975	 H	1	UNK1	0.000	
244	1H26	45.297	40.481	31.117	 H	1	UNK1	0.000	
245	 H26	58.556	32.030	26.804	 H	1	UNK1	0.000	
246	1H27	44.612	39.617	29.756	 H	1	UNK1	0.000	
247	 H27	42.145	40.011	28.641	 H	1	UNK1	0.000	
248	1H28	43.109	40.394	32.292	 H	1	UNK1	0.000	
249	 H28	41.089	37.496	31.081	 H	1	UNK1	0.000	
250	1H29	49.237	38.927	34.885	 H	1	UNK1	0.000	
251	 H29	41.531	36.182	29.249	 H	1	UNK1	0.000	
252	1H30	46.927	39.463	35.183	 H	1	UNK1	0.000	
253	 H30	42.816	36.409	31.801	 H	1	UNK1	0.000	
254	1H31	44.611	39.360	34.421	 H	1	UNK1	0.000	
255	 H31	43.422	35.387	28.833	 H	1	UNK1	0.000	
256	1H32	65.958	36.134	34.469	 H	1	UNK1	0.000	
257	 H32	44.924	35.243	27.242	 H	1	UNK1	0.000	
258	1H33	67.279	38.679	33.407	 H	1	UNK1	0.000	
259	 H33	47.260	35.849	27.944	 H	1	UNK1	0.000	
260	1H34	61.724	40.838	37.582	 H	1	UNK1	0.000	
261	 H34	47.493	32.059	23.870	 H	1	UNK1	0.000	
262	1H35	53.523	37.403	35.614	 H	1	UNK1	0.000	
263	 H35	43.415	38.370	28.413	 H	1	UNK1	0.000	
264	1H36	51.512	36.851	34.220	 H	1	UNK1	0.000	
265	 H36	46.787	34.077	30.202	 H	1	UNK1	0.000	
266	1H37	51.486	38.567	34.618	 H	1	UNK1	0.000	
267	 H37	45.545	32.349	29.635	 H	1	UNK1	0.000	
268	1H38	56.281	37.479	37.088	 H	1	UNK1	0.000	
269	 H38	45.693	38.143	27.662	 H	1	UNK1	0.000	
270	1H39	52.656	39.220	32.732	 H	1	UNK1	0.000	
271	 H39	53.964	36.424	31.337	 H	1	UNK1	0.000	
272	1H40	61.269	40.695	35.691	 H	1	UNK1	0.000	
273	 H40	53.646	35.114	29.944	 H	1	UNK1	0.000	
274	1H41	62.442	38.110	34.905	 H	1	UNK1	0.000	
275	 H41	65.987	40.002	26.055	 H	1	UNK1	0.000	
276	1H42	67.065	36.174	36.634	 H	1	UNK1	0.000	
277	 H42	47.726	34.288	26.400	 H	1	UNK1	0.000	
278	1H43	64.161	36.996	33.090	 H	1	UNK1	0.000	
279	 H43	41.830	39.048	26.435	 H	1	UNK1	0.000	
280	1H44	70.783	34.931	34.494	 H	1	UNK1	0.000	
281	 H44	48.235	32.706	29.007	 H	1	UNK1	0.000	
282	1H45	68.818	35.090	35.509	 H	1	UNK1	0.000	
283	 H45	40.455	36.633	25.190	 H	1	UNK1	0.000	
284	1H46	69.559	37.903	36.383	 H	1	UNK1	0.000	
285	 H46	42.725	36.137	26.488	 H	1	UNK1	0.000	
286	1H47	64.331	40.652	32.746	 H	1	UNK1	0.000	
287	 H47	44.327	35.534	30.736	 H	1	UNK1	0.000	
288	1H48	65.680	39.381	32.557	 H	1	UNK1	0.000	
289	 H48	54.451	31.466	29.775	 H	1	UNK1	0.000	
290	1H49	69.122	38.746	34.784	 H	1	UNK1	0.000	
291	 H49	56.525	33.987	26.114	 H	1	UNK1	0.000	
292	1H50	64.894	36.236	31.050	 H	1	UNK1	0.000	
293	 H50	56.067	32.695	29.341	 H	1	UNK1	0.000	
294	1H51	58.703	39.976	39.463	 H	1	UNK1	0.000	
295	 H51	52.454	34.688	26.317	 H	1	UNK1	0.000	
296	1H52	61.600	39.243	40.537	 H	1	UNK1	0.000	
297	 H52	53.562	32.468	26.324	 H	1	UNK1	0.000	
298	1H53	71.543	37.641	35.717	 H	1	UNK1	0.000	
299	 H53	55.654	34.596	28.949	 H	1	UNK1	0.000	
300	1H54	72.648	36.721	34.751	 H	1	UNK1	0.000	
301	 H54	54.418	35.138	26.417	 H	1	UNK1	0.000	
302	1H55	71.343	38.549	33.636	 H	1	UNK1	0.000	
303	 H55	53.387	36.879	27.535	 H	1	UNK1	0.000	
304	1H56	71.578	37.050	32.773	 H	1	UNK1	0.000	
305	 H56	53.884	39.244	30.488	 H	1	UNK1	0.000	
306	1H57	60.575	40.256	38.872	 H	1	UNK1	0.000	
307	 H57	54.210	38.790	28.315	 H	1	UNK1	0.000	
308	1H58	62.639	37.126	38.605	 H	1	UNK1	0.000	
309	 H58	55.982	36.484	29.159	 H	1	UNK1	0.000	
310	1H59	63.843	39.414	40.086	 H	1	UNK1	0.000	
311	 H59	55.370	37.551	26.409	 H	1	UNK1	0.000	
312	1H60	63.461	40.742	38.166	 H	1	UNK1	0.000	
313	 H60	56.196	35.944	25.557	 H	1	UNK1	0.000	
314	1H61	56.733	37.939	38.737	 H	1	UNK1	0.000	
315	 H61	56.508	39.302	26.629	 H	1	UNK1	0.000	
316	1H62	70.115	37.037	38.628	 H	1	UNK1	0.000	
317	 H62	69.596	41.715	27.061	 H	1	UNK1	0.000	
318	1H63	57.399	40.593	37.960	 H	1	UNK1	0.000	
319	 H63	68.256	39.982	26.162	 H	1	UNK1	0.000	
320	 H64	58.355	35.452	25.065	 H	1	UNK1	0.000	
321	1H65	67.830	37.178	41.021	 H	1	UNK1	0.000	
322	 H65	59.019	36.148	26.525	 H	1	UNK1	0.000	
323	 H66	57.386	37.895	24.660	 H	1	UNK1	0.000	
324	 H67	59.006	37.439	24.195	 H	1	UNK1	0.000	
325	1H68	66.813	35.321	38.822	 H	1	UNK1	0.000	
326	 H68	58.665	39.644	25.477	 H	1	UNK1	0.000	
327	1H69	69.901	36.043	40.701	 H	1	UNK1	0.000	
328	 H69	55.717	40.554	38.725	 H	1	UNK1	0.000	
329	1H70	69.090	34.633	40.005	 H	1	UNK1	0.000	
330	 H70	56.051	40.350	36.123	 H	1	UNK1	0.000	
331	1H71	68.102	38.104	38.715	 H	1	UNK1	0.000	
332	 H71	73.524	34.518	35.299	 H	1	UNK1	0.000	
333	1H72	65.972	39.051	39.406	 H	1	UNK1	0.000	
334	 H72	73.365	32.964	39.300	 H	1	UNK1	0.000	
335	 H73	74.600	33.315	37.179	 H	1	UNK1	0.000	
336	 H74	44.350	38.616	25.840	 H	1	UNK1	0.000	
337	 H75	51.971	38.560	30.802	 H	1	UNK1	0.000	
338	 H76	69.153	38.594	26.747	 H	1	UNK1	0.000	
339	 H77	56.604	39.132	40.138	 H	1	UNK1	0.000	
340	 H78	63.121	37.489	30.844	 H	1	UNK1	0.000	
341	 H79	40.285	35.837	27.378	 H	1	UNK1	0.000	
342	1H80	58.305	37.152	40.590	 H	1	UNK1	0.000	
343	 H80	38.860	36.837	27.195	 H	1	UNK1	0.000	
344	1H81	58.873	38.588	41.423	 H	1	UNK1	0.000	
345	 H81	67.924	35.302	32.981	 H	1	UNK1	0.000	
346	 H82	65.651	40.117	27.794	 H	1	UNK1	0.000	
347	 H83	67.070	37.746	26.525	 H	1	UNK1	0.000	
348	1H84	60.410	36.556	39.803	 H	1	UNK1	0.000	
349	 H84	65.469	36.379	29.094	 H	1	UNK1	0.000	
350	1H85	60.757	37.180	41.396	 H	1	UNK1	0.000	
351	 H85	39.581	37.584	29.228	 H	1	UNK1	0.000	
352	1H86	63.050	37.198	40.342	 H	1	UNK1	0.000	
353	 H86	40.661	40.500	29.454	 H	1	UNK1	0.000	
354	1H87	59.626	37.534	38.017	 H	1	UNK1	0.000	
355	 H87	55.964	40.232	28.599	 H	1	UNK1	0.000	
356	 H88	60.842	40.676	25.843	 H	1	UNK1	0.000	
357	 H89	62.864	40.985	26.697	 H	1	UNK1	0.000	
358	 H90	60.866	38.476	25.023	 H	1	UNK1	0.000	
359	 H91	60.782	37.756	26.636	 H	1	UNK1	0.000	
360	 H92	58.775	37.762	27.894	 H	1	UNK1	0.000	
361	 H93	60.199	41.473	27.750	 H	1	UNK1	0.000	
362	 H94	61.577	41.373	29.277	 H	1	UNK1	0.000	
363	 H95	63.501	40.498	28.707	 H	1	UNK1	0.000	
364	 H96	58.261	40.738	27.914	 H	1	UNK1	0.000	
365	 H97	63.731	39.581	25.159	 H	1	UNK1	0.000	
366	 H98	62.868	38.179	25.714	 H	1	UNK1	0.000	
367	 H99	65.010	37.690	26.080	 H	1	UNK1	0.000	
@<TRIPOS>BOND
1 1 4 1
2 1 19 1
3 1 201 1
4 1 261 1
5 2 4 ar
6 2 5 ar
7 2 205 1
8 3 19 ar
9 3 191 ar
10 3 199 1
11 4 26 ar
12 5 37 ar
13 5 211 1
14 6 9 1
15 6 10 1
16 6 39 1
17 6 213 1
18 7 9 1
19 7 36 1
20 7 215 1
21 7 217 1
22 8 36 1
23 8 41 1
24 8 219 1
25 8 221 1
26 9 227 1
27 9 229 1
28 10 57 1
29 10 233 1
30 10 245 1
31 11 13 1
32 11 15 1
33 11 65 1
34 11 263 1
35 12 13 1
36 12 14 1
37 12 108 1
38 12 249 1
39 13 68 1
40 13 251 1
41 14 29 1
42 14 109 1
43 14 253 1
44 15 17 1
45 15 29 1
46 15 255 1
47 16 27 ar
48 16 34 ar
49 16 44 ar
50 17 18 1
51 17 28 1
52 17 257 1
53 18 20 1
54 18 33 1
55 18 259 1
56 19 24 ar
57 20 22 1
58 20 25 1
59 20 265 1
60 21 24 ar
61 21 191 ar
62 21 22 1
63 22 197 1
64 22 267 1
65 23 24 1
66 23 25 1
67 23 26 1
68 23 277 1
69 25 34 1
70 25 281 1
71 26 27 ar
72 27 37 ar
73 28 67 1
74 28 207 1
75 28 269 1
76 29 30 1
77 29 287 1
78 30 33 ar
79 30 71 ar
80 31 32 ar
81 31 33 ar
82 31 35 ar
83 32 34 ar
84 32 49 ar
85 35 70 ar
86 35 115 ar
87 36 39 1
88 36 289 1
89 37 41 1
90 38 42 1
91 38 55 1
92 38 57 1
93 38 291 1
94 39 42 1
95 39 293 1
96 40 41 1
97 40 43 1
98 40 44 1
99 40 295 1
100 41 297 1
101 42 43 1
102 42 299 1
103 43 45 1
104 43 301 1
105 44 50 ar
106 45 51 1
107 45 53 1
108 45 303 1
109 46 49 ar
110 46 70 ar
111 46 72 1
112 47 48 1
113 47 52 1
114 47 73 1
115 47 305 1
116 48 51 1
117 48 72 1
118 48 271 1
119 49 50 ar
120 50 51 1
121 51 273 1
122 52 53 1
123 52 74 1
124 52 307 1
125 53 54 1
126 53 309 1
127 54 55 1
128 54 56 1
129 54 311 1
130 55 58 1
131 55 313 1
132 56 74 1
133 56 79 1
134 56 315 1
135 57 231 1
136 57 235 1
137 58 59 1
138 58 320 1
139 58 322 1
140 59 60 1
141 59 323 1
142 59 324 1
143 60 78 1
144 60 79 1
145 60 326 1
146 61 62 1
147 61 89 1
148 61 275 1
149 61 346 1
150 62 92 1
151 62 101 1
152 62 347 1
153 63 64 1
154 63 65 1
155 63 237 1
156 63 279 1
157 64 66 1
158 64 209 1
159 64 283 1
160 65 67 1
161 65 285 1
162 66 68 1
163 66 341 1
164 66 343 1
165 67 203 1
166 67 336 1
167 68 239 1
168 68 351 1
169 69 108 1
170 69 112 1
171 69 247 1
172 69 353 1
173 70 120 ar
174 71 115 ar
175 71 121 ar
176 72 130 1
177 72 337 1
178 73 75 ar
179 73 129 ar
180 74 85 1
181 74 355 1
182 75 85 ar
183 75 145 ar
184 76 77 1
185 76 78 1
186 76 80 1
187 76 356 1
188 77 86 1
189 77 88 1
190 77 357 1
191 78 358 1
192 78 359 1
193 79 87 1
194 79 360 1
195 80 83 1
196 80 87 1
197 80 361 1
198 81 82 ar
199 81 84 ar
200 81 132 ar
201 82 85 ar
202 82 87 1
203 83 84 1
204 83 86 1
205 83 362 1
206 84 133 ar
207 86 98 1
208 86 363 1
209 87 364 1
210 88 89 1
211 88 365 1
212 88 366 1
213 89 93 1
214 89 367 1
215 90 91 ar
216 90 92 1
217 90 103 ar
218 91 95 ar
219 91 106 ar
220 92 319 1
221 92 338 1
222 93 98 1
223 93 100 1
224 93 204 1
225 94 97 1
226 94 98 1
227 94 147 1
228 94 340 1
229 95 99 ar
230 95 101 1
231 96 99 1
232 96 110 1
233 96 159 1
234 96 206 1
235 97 100 1
236 97 159 1
237 97 208 1
238 98 210 1
239 99 105 ar
240 100 101 1
241 100 349 1
242 101 200 1
243 102 104 ar
244 102 106 ar
245 102 241 1
246 103 104 ar
247 103 317 1
248 104 243 1
249 105 107 ar
250 106 107 ar
251 107 223 1
252 108 114 1
253 108 224 1
254 109 114 1
255 109 121 1
256 109 226 1
257 110 149 1
258 110 214 1
259 110 345 1
260 111 112 1
261 111 113 1
262 111 236 1
263 111 238 1
264 112 240 1
265 112 242 1
266 113 114 1
267 113 244 1
268 113 246 1
269 114 248 1
270 115 118 ar
271 116 118 ar
272 116 120 ar
273 116 250 1
274 117 118 ar
275 117 119 ar
276 117 252 1
277 119 121 ar
278 119 254 1
279 120 126 1
280 122 124 1
281 122 125 1
282 122 128 1
283 122 212 1
284 123 128 1
285 123 192 1
286 123 228 1
287 123 330 1
288 124 129 ar
289 124 144 ar
290 125 127 1
291 125 216 1
292 125 262 1
293 126 130 1
294 126 264 1
295 126 266 1
296 127 129 1
297 127 130 1
298 127 218 1
299 128 136 1
300 128 268 1
301 130 270 1
302 131 132 ar
303 131 134 ar
304 131 137 ar
305 132 145 ar
306 133 137 ar
307 133 147 1
308 134 140 1
309 134 141 ar
310 135 140 1
311 135 142 1
312 135 143 1
313 135 272 1
314 136 139 1
315 136 141 1
316 136 220 1
317 137 138 1
318 138 143 1
319 138 150 1
320 138 232 1
321 139 140 1
322 139 182 1
323 139 222 1
324 140 230 1
325 141 144 ar
326 142 180 1
327 142 184 1
328 142 260 1
329 143 154 1
330 143 274 1
331 144 145 ar
332 146 149 1
333 146 153 1
334 146 159 1
335 146 278 1
336 147 150 1
337 147 234 1
338 148 157 1
339 148 160 1
340 148 165 1
341 148 284 1
342 149 151 1
343 149 256 1
344 150 153 1
345 150 286 1
346 151 152 1
347 151 157 1
348 151 258 1
349 152 155 ar
350 152 156 ar
351 153 156 1
352 153 288 1
353 154 156 ar
354 154 158 ar
355 155 160 1
356 155 185 ar
357 157 161 1
358 157 290 1
359 158 184 1
360 158 185 ar
361 159 292 1
362 160 171 1
363 160 276 1
364 105 161 1
365 161 163 1
366 161 225 1
367 162 163 1
368 162 164 1
369 162 298 1
370 162 300 1
371 163 302 1
372 163 304 1
373 164 165 1
374 164 188 1
375 164 280 1
376 165 175 1
377 165 282 1
378 166 170 1
379 166 171 1
380 166 175 1
381 166 316 1
382 167 169 1
383 167 172 1
384 167 196 1
385 167 198 1
386 168 169 1
387 168 170 1
388 168 202 1
389 168 321 1
390 169 171 1
391 169 325 1
392 170 327 1
393 170 329 1
394 171 331 1
395 172 183 1
396 172 185 1
397 172 333 1
398 173 174 ar
399 173 187 ar
400 173 193 1
401 174 188 ar
402 174 175 1
403 175 194 1
404 176 177 1
405 176 178 1
406 176 342 1
407 176 344 1
408 177 182 1
409 177 190 1
410 177 294 1
411 178 179 1
412 178 348 1
413 178 350 1
414 179 180 1
415 179 181 1
416 179 296 1
417 180 182 1
418 180 306 1
419 181 183 1
420 181 308 1
421 181 352 1
422 182 354 1
423 183 184 1
424 183 310 1
425 184 312 1
426 186 187 ar
427 186 189 ar
428 186 335 1
429 187 334 1
430 188 189 ar
431 189 332 1
432 190 314 1
433 190 339 1
434 191 195 1
435 190 192 1
436 192 318 1
437 192 328 1
@<TRIPOS>SUBSTRUCTURE
1	UNK1	1	GROUP	1 ****	UNK
