# created with PyMOL 2.5.5
@<TRIPOS>MOLECULE
full_87
188 208 1               
SMALL
USER_CHARGES
@<TRIPOS>ATOM
1	 C01	43.414	30.709	29.353	C.3	1	UNK1	0.000	
2	 C02	42.992	30.514	30.625	C.3	1	UNK1	0.000	
3	 C03	43.519	31.525	28.452	C.3	1	UNK1	0.000	
4	 C04	42.139	33.436	28.256	C.3	1	UNK1	0.000	
5	 C05	41.692	34.359	25.996	C.3	1	UNK1	0.000	
6	 C06	43.082	34.057	25.747	C.3	1	UNK1	0.000	
7	 C07	43.663	32.928	26.422	C.3	1	UNK1	0.000	
8	 C08	41.248	34.015	27.302	C.3	1	UNK1	0.000	
9	 C09	43.292	32.709	27.775	C.3	1	UNK1	0.000	
10	 C10	40.648	34.228	29.804	C.3	1	UNK1	0.000	
11	 C11	40.435	35.047	30.881	C.3	1	UNK1	0.000	
12	 C12	41.805	33.445	29.622	C.3	1	UNK1	0.000	
13	 C13	42.532	33.097	30.867	C.3	1	UNK1	0.000	
14	 C14	42.709	31.741	31.364	C.3	1	UNK1	0.000	
15	 C15	44.278	31.937	25.691	C.3	1	UNK1	0.000	
16	 C16	40.834	30.544	35.298	C.3	1	UNK1	0.000	
17	 C17	40.380	30.505	36.616	C.3	1	UNK1	0.000	
18	 C18	41.167	31.187	37.576	C.3	1	UNK1	0.000	
19	 C19	42.396	31.244	32.648	C.3	1	UNK1	0.000	
20	 C20	41.759	31.565	35.009	C.3	1	UNK1	0.000	
21	 C21	42.403	31.974	33.829	C.3	1	UNK1	0.000	
22	 C22	40.997	35.723	33.033	C.3	1	UNK1	0.000	
23	 C23	41.930	35.009	35.267	C.3	1	UNK1	0.000	
24	 C24	42.558	33.715	35.364	C.3	1	UNK1	0.000	
25	 C25	42.053	35.327	33.873	C.3	1	UNK1	0.000	
26	 C26	41.370	35.127	31.825	C.3	1	UNK1	0.000	
27	 C27	41.150	35.748	36.224	C.3	1	UNK1	0.000	
28	 C28	42.477	34.200	31.801	C.3	1	UNK1	0.000	
29	 C29	42.888	34.384	33.173	C.3	1	UNK1	0.000	
30	 C30	43.013	33.269	34.076	C.3	1	UNK1	0.000	
31	 C31	41.961	32.601	35.926	C.3	1	UNK1	0.000	
32	 C32	40.213	36.746	35.798	C.3	1	UNK1	0.000	
33	 C33	41.850	32.346	37.251	C.3	1	UNK1	0.000	
34	 C34	41.556	35.680	37.582	C.3	1	UNK1	0.000	
35	 C35	41.078	30.719	38.869	C.3	1	UNK1	0.000	
36	 C36	42.030	30.758	39.887	C.3	1	UNK1	0.000	
37	 C37	43.770	30.163	41.866	C.3	1	UNK1	0.000	
38	 C38	43.205	31.527	39.940	C.3	1	UNK1	0.000	
39	 C39	44.017	31.349	41.107	C.3	1	UNK1	0.000	
40	 C40	45.390	30.890	43.559	C.3	1	UNK1	0.000	
41	 C41	44.046	35.022	42.036	C.3	1	UNK1	0.000	
42	 C42	42.505	33.231	38.152	C.3	1	UNK1	0.000	
43	 C43	41.738	36.891	39.760	C.2	1	UNK1	0.000	
44	 C44	42.682	35.990	40.224	C.2	1	UNK1	0.000	
45	 C45	43.261	32.753	39.253	C.3	1	UNK1	0.000	
46	 C46	43.054	34.944	39.421	C.3	1	UNK1	0.000	
47	 C47	43.056	37.169	42.290	C.2	1	UNK1	0.000	
48	 C48	43.664	33.834	40.022	C.3	1	UNK1	0.000	
49	 C49	43.277	36.037	41.505	C.2	1	UNK1	0.000	
50	 C50	42.400	34.664	38.187	C.3	1	UNK1	0.000	
51	 C51	41.228	36.786	38.438	C.2	1	UNK1	0.000	
52	 C52	43.915	37.555	43.341	C.2	1	UNK1	0.000	
53	 C53	44.170	33.779	41.351	C.3	1	UNK1	0.000	
54	 C54	40.428	37.877	38.027	C.2	1	UNK1	0.000	
55	 C55	44.735	35.392	43.268	C.3	1	UNK1	0.000	
56	 C56	45.382	34.395	43.624	C.3	1	UNK1	0.000	
57	 C57	45.931	33.257	43.789	C.3	1	UNK1	0.000	
58	 C58	45.357	32.180	42.970	C.3	1	UNK1	0.000	
59	 C59	44.596	32.473	41.809	C.3	1	UNK1	0.000	
60	 C60	44.924	36.739	43.804	C.2	1	UNK1	0.000	
61	 C61	41.357	37.905	40.654	C.2	1	UNK1	0.000	
62	 C62	41.957	37.948	41.931	C.2	1	UNK1	0.000	
63	 C63	41.650	38.956	42.813	C.3	1	UNK1	0.000	
64	 C64	40.545	38.980	40.252	C.2	1	UNK1	0.000	
65	 C65	40.101	38.948	38.924	C.2	1	UNK1	0.000	
66	 C66	42.548	39.350	43.779	C.3	1	UNK1	0.000	
67	 C67	43.731	38.763	43.998	C.2	1	UNK1	0.000	
68	 C68	44.909	30.034	45.736	C.3	1	UNK1	0.000	
69	 C69	45.799	30.732	44.924	C.3	1	UNK1	0.000	
70	 C70	45.893	37.274	44.676	C.2	1	UNK1	0.000	
71	 C71	46.522	31.746	45.580	C.3	1	UNK1	0.000	
72	 C72	46.400	33.032	45.113	C.3	1	UNK1	0.000	
73	 C73	47.258	31.805	46.808	C.3	1	UNK1	0.000	
74	 C74	44.700	39.419	44.764	C.2	1	UNK1	0.000	
75	 C75	46.958	39.490	45.437	C.3	1	UNK1	0.000	
76	 C76	45.876	38.698	44.976	C.2	1	UNK1	0.000	
77	 H77	45.792	36.748	45.625	 H	1	UNK1	0.000	
78	 H78	46.872	30.733	45.379	 H	1	UNK1	0.000	
79	 H79	42.442	30.396	28.971	 H	1	UNK1	0.000	
80	 H80	45.614	33.456	45.737	 H	1	UNK1	0.000	
81	 H81	44.453	30.392	29.446	 H	1	UNK1	0.000	
82	 H82	47.387	33.490	45.182	 H	1	UNK1	0.000	
83	 H83	43.809	30.018	31.150	 H	1	UNK1	0.000	
84	 H84	48.154	32.409	46.665	 H	1	UNK1	0.000	
85	 H85	42.081	29.916	30.594	 H	1	UNK1	0.000	
86	 H86	46.637	32.254	47.583	 H	1	UNK1	0.000	
87	 H87	42.544	31.190	28.098	 H	1	UNK1	0.000	
88	 H88	47.544	30.797	47.109	 H	1	UNK1	0.000	
89	 H89	44.606	31.600	28.476	 H	1	UNK1	0.000	
90	 H90	44.256	39.571	45.748	 H	1	UNK1	0.000	
91	 H91	42.743	34.299	28.535	 H	1	UNK1	0.000	
92	 H92	44.960	40.348	44.257	 H	1	UNK1	0.000	
93	 H93	41.110	33.757	25.298	 H	1	UNK1	0.000	
94	 H94	47.791	39.407	44.739	 H	1	UNK1	0.000	
95	 H95	41.543	35.429	25.854	 H	1	UNK1	0.000	
96	 H96	46.644	40.532	45.504	 H	1	UNK1	0.000	
97	 H97	43.621	34.917	26.146	 H	1	UNK1	0.000	
98	 H98	47.272	39.140	46.420	 H	1	UNK1	0.000	
99	 H99	43.189	33.885	24.676	 H	1	UNK1	0.000	
100	H100	46.479	37.838	45.269	 H	1	UNK1	0.000	
101	H101	44.652	33.331	26.638	 H	1	UNK1	0.000	
102	H102	41.027	34.987	27.742	 H	1	UNK1	0.000	
103	H103	40.428	33.308	27.174	 H	1	UNK1	0.000	
104	H104	44.210	33.200	28.097	 H	1	UNK1	0.000	
105	H105	40.771	34.963	29.009	 H	1	UNK1	0.000	
106	H106	39.813	33.527	29.796	 H	1	UNK1	0.000	
107	H107	39.586	34.592	31.392	 H	1	UNK1	0.000	
108	H108	40.285	36.054	30.493	 H	1	UNK1	0.000	
109	H109	42.116	32.400	29.631	 H	1	UNK1	0.000	
110	H110	43.545	32.934	30.499	 H	1	UNK1	0.000	
111	H111	43.241	32.667	31.145	 H	1	UNK1	0.000	
112	H112	45.267	31.742	26.105	 H	1	UNK1	0.000	
113	H113	43.680	31.027	25.736	 H	1	UNK1	0.000	
114	H114	44.375	32.257	24.654	 H	1	UNK1	0.000	
115	H115	39.957	30.750	34.684	 H	1	UNK1	0.000	
116	H116	41.307	29.588	35.076	 H	1	UNK1	0.000	
117	H117	40.421	29.454	36.904	 H	1	UNK1	0.000	
118	H118	39.381	30.941	36.636	 H	1	UNK1	0.000	
119	H119	42.227	31.051	37.361	 H	1	UNK1	0.000	
120	H120	43.265	30.608	32.818	 H	1	UNK1	0.000	
121	H121	41.384	30.847	32.563	 H	1	UNK1	0.000	
122	H122	41.949	30.494	34.934	 H	1	UNK1	0.000	
123	H123	42.664	31.525	32.871	 H	1	UNK1	0.000	
124	H124	40.855	36.802	32.973	 H	1	UNK1	0.000	
125	H125	40.039	35.342	33.388	 H	1	UNK1	0.000	
126	H126	42.008	35.620	36.166	 H	1	UNK1	0.000	
127	H127	43.296	34.007	36.111	 H	1	UNK1	0.000	
128	H128	42.480	36.313	34.058	 H	1	UNK1	0.000	
129	H129	41.969	35.941	31.416	 H	1	UNK1	0.000	
130	H130	40.287	35.083	36.250	 H	1	UNK1	0.000	
131	H131	43.360	34.187	31.162	 H	1	UNK1	0.000	
132	H132	43.907	34.708	32.960	 H	1	UNK1	0.000	
133	H133	44.067	33.022	33.949	 H	1	UNK1	0.000	
134	H134	41.080	33.133	36.284	 H	1	UNK1	0.000	
135	H135	39.319	36.693	36.419	 H	1	UNK1	0.000	
136	H136	40.664	37.734	35.895	 H	1	UNK1	0.000	
137	H137	39.942	36.570	34.757	 H	1	UNK1	0.000	
138	H138	41.420	32.584	38.224	 H	1	UNK1	0.000	
139	H139	41.062	34.800	37.171	 H	1	UNK1	0.000	
140	H140	41.135	29.653	38.649	 H	1	UNK1	0.000	
141	H141	40.215	31.238	39.286	 H	1	UNK1	0.000	
142	H142	42.480	29.778	39.730	 H	1	UNK1	0.000	
143	H143	41.471	31.044	40.778	 H	1	UNK1	0.000	
144	H144	42.764	29.800	41.655	 H	1	UNK1	0.000	
145	H145	44.497	29.398	41.593	 H	1	UNK1	0.000	
146	H146	43.859	30.386	42.929	 H	1	UNK1	0.000	
147	H147	43.802	31.007	39.191	 H	1	UNK1	0.000	
148	H148	44.938	31.154	40.559	 H	1	UNK1	0.000	
149	H149	46.178	30.383	43.003	 H	1	UNK1	0.000	
150	H150	44.381	30.484	43.484	 H	1	UNK1	0.000	
151	H151	44.029	33.950	42.233	 H	1	UNK1	0.000	
152	H152	42.508	32.989	37.089	 H	1	UNK1	0.000	
153	H153	40.888	36.932	39.079	 H	1	UNK1	0.000	
154	H154	42.536	37.052	40.419	 H	1	UNK1	0.000	
155	H155	43.931	32.172	38.619	 H	1	UNK1	0.000	
156	H156	43.859	35.557	39.017	 H	1	UNK1	0.000	
157	H157	43.341	36.888	43.304	 H	1	UNK1	0.000	
158	H158	44.742	33.911	40.166	 H	1	UNK1	0.000	
159	H159	43.658	35.303	40.795	 H	1	UNK1	0.000	
160	H160	42.521	34.914	37.133	 H	1	UNK1	0.000	
161	H161	40.968	35.870	37.907	 H	1	UNK1	0.000	
162	H162	44.064	37.473	42.264	 H	1	UNK1	0.000	
163	H163	44.971	33.729	42.089	 H	1	UNK1	0.000	
164	H164	39.459	37.407	37.862	 H	1	UNK1	0.000	
165	H165	40.939	38.331	37.178	 H	1	UNK1	0.000	
166	H166	44.074	35.895	43.974	 H	1	UNK1	0.000	
167	H167	44.430	33.918	43.856	 H	1	UNK1	0.000	
168	H168	46.336	34.921	43.587	 H	1	UNK1	0.000	
169	H169	46.907	33.253	43.304	 H	1	UNK1	0.000	
170	H170	46.028	32.017	42.126	 H	1	UNK1	0.000	
171	H171	45.560	32.972	41.708	 H	1	UNK1	0.000	
172	H172	45.874	36.463	44.262	 H	1	UNK1	0.000	
173	H173	40.436	37.338	40.792	 H	1	UNK1	0.000	
174	H174	41.199	37.166	41.960	 H	1	UNK1	0.000	
175	H175	40.841	38.522	43.401	 H	1	UNK1	0.000	
176	H176	41.433	39.839	42.212	 H	1	UNK1	0.000	
177	H177	41.171	39.868	40.332	 H	1	UNK1	0.000	
178	H178	39.667	38.996	40.898	 H	1	UNK1	0.000	
179	H179	39.027	38.812	39.051	 H	1	UNK1	0.000	
180	H180	40.475	39.859	38.457	 H	1	UNK1	0.000	
181	H181	42.010	39.064	44.683	 H	1	UNK1	0.000	
182	H182	42.774	40.394	43.562	 H	1	UNK1	0.000	
183	H183	44.293	38.408	44.862	 H	1	UNK1	0.000	
184	H184	43.965	29.900	45.208	 H	1	UNK1	0.000	
185	H185	45.329	29.059	45.982	 H	1	UNK1	0.000	
186	H186	44.735	30.597	46.653	 H	1	UNK1	0.000	
187	H187	46.635	30.062	44.726	 H	1	UNK1	0.000	
188	H188	46.829	37.137	44.135	 H	1	UNK1	0.000	
@<TRIPOS>BOND
1 1 2 1
2 1 3 1
3 1 79 1
4 1 81 1
5 2 14 1
6 2 83 1
7 2 85 1
8 3 9 1
9 3 87 1
10 3 89 1
11 4 8 1
12 4 9 1
13 4 12 1
14 4 91 1
15 5 6 1
16 5 8 1
17 5 93 1
18 5 95 1
19 6 7 1
20 6 97 1
21 6 99 1
22 7 9 1
23 7 15 1
24 7 101 1
25 8 102 1
26 8 103 1
27 9 104 1
28 10 11 1
29 10 12 1
30 10 105 1
31 10 106 1
32 11 26 1
33 11 107 1
34 11 108 1
35 12 13 1
36 12 109 1
37 13 14 1
38 13 28 1
39 13 110 1
40 14 19 1
41 14 111 1
42 15 112 1
43 15 113 1
44 15 114 1
45 16 17 1
46 16 20 1
47 16 115 1
48 16 116 1
49 17 18 1
50 17 117 1
51 17 118 1
52 18 33 1
53 18 35 1
54 18 119 1
55 19 21 1
56 19 120 1
57 19 121 1
58 20 21 1
59 20 31 1
60 20 122 1
61 21 30 1
62 21 123 1
63 22 25 1
64 22 26 1
65 22 124 1
66 22 125 1
67 23 24 1
68 23 25 1
69 23 27 1
70 23 126 1
71 24 30 1
72 24 31 1
73 24 127 1
74 25 29 1
75 25 128 1
76 26 28 1
77 26 129 1
78 27 32 1
79 27 34 1
80 27 130 1
81 28 29 1
82 28 131 1
83 29 30 1
84 29 132 1
85 30 133 1
86 31 33 1
87 31 134 1
88 32 135 1
89 32 136 1
90 32 137 1
91 33 42 1
92 33 138 1
93 34 50 1
94 34 51 1
95 34 139 1
96 35 36 1
97 35 140 1
98 35 141 1
99 36 38 1
100 36 142 1
101 36 143 1
102 37 39 1
103 37 144 1
104 37 145 1
105 37 146 1
106 38 39 1
107 38 45 1
108 38 147 1
109 39 59 1
110 39 148 1
111 40 58 1
112 40 69 1
113 40 149 1
114 40 150 1
115 41 49 1
116 41 53 1
117 41 55 1
118 41 151 1
119 42 45 1
120 42 50 1
121 42 152 1
122 43 44 ar
123 43 51 ar
124 43 61 ar
125 43 153 1
126 44 46 1
127 44 49 ar
128 44 154 1
129 45 48 1
130 45 155 1
131 46 48 1
132 46 50 1
133 46 156 1
134 47 49 ar
135 47 52 ar
136 47 62 ar
137 47 157 1
138 48 53 1
139 48 158 1
140 49 159 1
141 50 160 1
142 51 54 ar
143 51 161 1
144 52 60 ar
145 52 67 ar
146 52 162 1
147 53 59 1
148 53 163 1
149 54 65 ar
150 54 164 1
151 54 165 1
152 55 56 1
153 55 60 1
154 55 166 1
155 56 57 1
156 56 167 1
157 56 168 1
158 57 58 1
159 57 72 1
160 57 169 1
161 58 59 1
162 58 170 1
163 59 171 1
164 60 70 ar
165 60 172 1
166 61 62 ar
167 61 64 ar
168 61 173 1
169 62 63 1
170 62 174 1
171 63 66 1
172 63 175 1
173 63 176 1
174 64 65 ar
175 64 177 1
176 64 178 1
177 65 179 1
178 65 180 1
179 66 67 1
180 66 181 1
181 66 182 1
182 67 74 ar
183 67 183 1
184 68 69 1
185 68 184 1
186 68 185 1
187 68 186 1
188 69 71 1
189 69 187 1
190 70 76 ar
191 70 77 1
192 70 188 1
193 71 72 1
194 71 73 1
195 71 78 1
196 72 80 1
197 72 82 1
198 73 84 1
199 73 86 1
200 73 88 1
201 74 76 ar
202 74 90 1
203 74 92 1
204 75 76 1
205 75 94 1
206 75 96 1
207 75 98 1
208 76 100 1
@<TRIPOS>SUBSTRUCTURE
1	UNK1	1	GROUP	1 ****	UNK
