# created with PyMOL 2.5.5
@<TRIPOS>MOLECULE
full_87
64 75 1                 
SMALL
USER_CHARGES
@<TRIPOS>ATOM
1	 C01	9.708	44.097	43.813	C.2	1	UNK1	0.000	
2	 C02	8.927	49.616	45.927	C.2	1	UNK1	0.000	
3	 C03	10.061	47.808	44.892	C.2	1	UNK1	0.000	
4	 C04	10.931	48.826	44.977	C.2	1	UNK1	0.000	
5	 C05	9.639	45.305	44.443	C.2	1	UNK1	0.000	
6	 C06	10.245	46.601	43.997	C.3	1	UNK1	0.000	
7	 C07	8.868	48.105	45.779	C.2	1	UNK1	0.000	
8	 C08	10.421	49.928	45.848	C.2	1	UNK1	0.000	
9	 C10	5.797	46.636	51.119	C.2	1	UNK1	0.000	
10	 C11	4.770	46.850	50.287	C.2	1	UNK1	0.000	
11	 C14	8.767	43.240	44.459	C.2	1	UNK1	0.000	
12	 C15	8.122	42.083	44.388	C.2	1	UNK1	0.000	
13	 C16	7.234	43.271	46.224	C.2	1	UNK1	0.000	
14	 C17	8.306	43.842	45.670	C.2	1	UNK1	0.000	
15	 C18	7.827	39.907	45.055	C.2	1	UNK1	0.000	
16	 C19	7.129	40.661	45.933	C.2	1	UNK1	0.000	
17	 C20	6.975	42.046	45.402	C.2	1	UNK1	0.000	
18	 C21	8.352	40.714	43.872	C.2	1	UNK1	0.000	
19	 C22	3.221	46.855	45.663	C.3	1	UNK1	0.000	
20	 C23	4.124	46.845	46.952	C.3	1	UNK1	0.000	
21	 C24	2.370	46.043	48.682	C.3	1	UNK1	0.000	
22	 C25	1.393	45.191	46.473	C.3	1	UNK1	0.000	
23	 C26	1.277	45.239	47.988	C.3	1	UNK1	0.000	
24	 C27	5.571	46.820	46.463	C.2	1	UNK1	0.000	
25	 C28	4.128	49.355	45.470	C.3	1	UNK1	0.000	
26	 C29	3.390	48.178	44.824	C.3	1	UNK1	0.000	
27	 C30	3.781	45.829	48.091	C.3	1	UNK1	0.000	
28	 C31	1.702	46.547	45.820	C.3	1	UNK1	0.000	
29	 C32	5.651	49.207	45.503	C.3	1	UNK1	0.000	
30	 C33	6.622	45.492	50.619	C.2	1	UNK1	0.000	
31	 C34	0.970	46.469	44.449	C.3	1	UNK1	0.000	
32	 C35	5.890	45.102	49.360	C.2	1	UNK1	0.000	
33	 C36	4.807	45.889	49.201	C.2	1	UNK1	0.000	
34	 C37	0.265	45.121	44.386	C.3	1	UNK1	0.000	
35	 C38	0.078	44.739	45.837	C.3	1	UNK1	0.000	
36	 C39	6.203	47.871	45.879	C.2	1	UNK1	0.000	
37	 C40	6.472	45.668	46.444	C.2	1	UNK1	0.000	
38	 C41	7.562	47.464	45.358	C.2	1	UNK1	0.000	
39	 C42	8.822	45.217	45.718	C.2	1	UNK1	0.000	
40	 C43	7.618	46.067	45.842	C.2	1	UNK1	0.000	
41	 C44	6.255	44.212	46.933	C.3	1	UNK1	0.000	
42	 C45	6.460	44.048	48.460	C.3	1	UNK1	0.000	
43	 H01	9.422	40.523	43.740	 H	1	UNK1	0.000	
44	 H02	6.667	40.298	46.839	 H	1	UNK1	0.000	
45	 H03	8.030	38.852	45.176	 H	1	UNK1	0.000	
46	 H05	1.635	46.577	43.586	 H	1	UNK1	0.000	
47	 H06	-0.681	45.171	43.840	 H	1	UNK1	0.000	
48	 H07	-0.778	45.279	46.261	 H	1	UNK1	0.000	
49	 H08	3.906	50.257	44.882	 H	1	UNK1	0.000	
50	 H09	10.211	43.880	42.883	 H	1	UNK1	0.000	
51	 H12	4.026	47.626	50.395	 H	1	UNK1	0.000	
52	 H13	7.644	45.817	50.404	 H	1	UNK1	0.000	
53	 H14	6.637	44.670	51.342	 H	1	UNK1	0.000	
54	 H15	6.015	47.206	52.009	 H	1	UNK1	0.000	
55	 H16	7.542	44.012	48.657	 H	1	UNK1	0.000	
56	 H17	2.334	45.751	49.740	 H	1	UNK1	0.000	
57	 H18	0.308	45.657	48.290	 H	1	UNK1	0.000	
58	 H19	2.405	48.567	44.540	 H	1	UNK1	0.000	
59	 H20	6.015	49.445	44.495	 H	1	UNK1	0.000	
60	 H21	10.588	50.910	45.397	 H	1	UNK1	0.000	
61	 H22	11.874	48.883	44.448	 H	1	UNK1	0.000	
62	 H23	11.316	46.442	43.821	 H	1	UNK1	0.000	
63	 H49	8.522	49.938	46.891	 H	1	UNK1	0.000	
64	 H50	8.393	50.121	45.114	 H	1	UNK1	0.000	
@<TRIPOS>BOND
1 1 5 ar
2 1 11 ar
3 1 50 1
4 2 7 ar
5 2 8 ar
6 2 63 1
7 2 64 1
8 3 4 ar
9 3 6 1
10 3 7 ar
11 4 8 ar
12 4 61 1
13 5 6 1
14 5 39 ar
15 6 62 1
16 7 38 1
17 8 60 1
18 9 10 ar
19 9 54 1
20 10 33 ar
21 10 51 1
22 11 12 ar
23 11 14 ar
24 12 17 ar
25 12 18 ar
26 13 14 ar
27 13 17 ar
28 13 41 1
29 14 39 ar
30 15 16 ar
31 15 18 ar
32 15 45 1
33 16 17 ar
34 16 44 1
35 18 43 1
36 19 20 1
37 19 26 1
38 19 28 1
39 20 24 1
40 20 27 1
41 21 23 1
42 21 27 1
43 21 56 1
44 22 23 1
45 22 28 1
46 22 35 1
47 23 57 1
48 24 36 ar
49 24 37 ar
50 25 26 1
51 25 29 1
52 25 49 1
53 26 58 1
54 27 33 1
55 28 31 1
56 29 36 1
57 29 59 1
58 9 30 ar
59 30 32 ar
60 30 52 1
61 30 53 1
62 31 34 1
63 31 46 1
64 32 33 ar
65 32 42 1
66 34 35 1
67 34 47 1
68 35 48 1
69 36 38 ar
70 37 40 ar
71 37 41 1
72 38 40 ar
73 39 40 ar
74 41 42 1
75 42 55 1
@<TRIPOS>SUBSTRUCTURE
1	UNK1	1	GROUP	1 ****	UNK
