# created with PyMOL 2.5.5
@<TRIPOS>MOLECULE
9115
53 62 1                 
SMALL
USER_CHARGES
@<TRIPOS>ATOM
1	 C01	-0.640	-1.467	-0.156	C.2	1	UNK1	0.000	
2	 C02	0.839	-1.412	-0.541	C.3	1	UNK1	0.000	
3	 C03	-1.376	-0.343	-0.041	C.2	1	UNK1	0.000	
4	 C04	1.511	-0.073	-0.223	C.2	1	UNK1	0.000	
5	 C05	-0.692	0.987	-0.084	C.2	1	UNK1	0.000	
6	 C06	0.722	1.084	-0.118	C.2	1	UNK1	0.000	
7	 C07	-1.237	-2.789	0.061	C.2	1	UNK1	0.000	
8	 C08	1.634	-2.628	-0.081	C.2	1	UNK1	0.000	
9	 C09	-2.827	-0.392	0.130	C.2	1	UNK1	0.000	
10	 C10	2.900	-0.016	-0.083	C.2	1	UNK1	0.000	
11	 C11	-1.492	2.140	-0.013	C.2	1	UNK1	0.000	
12	 C12	1.348	2.348	-0.034	C.2	1	UNK1	0.000	
13	 C13	-2.736	-2.892	0.232	C.3	1	UNK1	0.000	
14	 C14	1.020	-3.803	0.135	C.2	1	UNK1	0.000	
15	 C15	-0.438	-3.885	0.118	C.2	1	UNK1	0.000	
16	 C16	3.560	1.228	0.013	C.2	1	UNK1	0.000	
17	 C17	-0.886	3.415	0.007	C.2	1	UNK1	0.000	
18	 C18	-3.584	0.852	0.143	C.2	1	UNK1	0.000	
19	 C19	2.777	2.414	-0.017	C.2	1	UNK1	0.000	
20	 C20	-2.985	2.058	0.062	C.2	1	UNK1	0.000	
21	 C21	-3.448	-1.573	0.264	C.2	1	UNK1	0.000	
22	 C22	0.532	3.510	0.018	C.2	1	UNK1	0.000	
23	 C23	3.071	-2.481	0.060	C.2	1	UNK1	0.000	
24	 C24	5.795	-0.072	0.059	C.2	1	UNK1	0.000	
25	 C25	5.083	1.234	0.148	C.3	1	UNK1	0.000	
26	 C26	3.698	-1.281	-0.021	C.2	1	UNK1	0.000	
27	 C27	5.149	-1.241	0.013	C.2	1	UNK1	0.000	
28	 C28	1.177	4.879	0.086	C.3	1	UNK1	0.000	
29	 C29	3.411	3.749	-0.036	C.2	1	UNK1	0.000	
30	 C30	2.668	4.868	0.058	C.2	1	UNK1	0.000	
31	 C31	-3.799	3.259	0.059	C.2	1	UNK1	0.000	
32	 C32	-1.742	4.675	0.027	C.3	1	UNK1	0.000	
33	 C33	-3.230	4.473	0.043	C.2	1	UNK1	0.000	
34	 H01	6.877	-0.060	0.034	 H	1	UNK1	0.000	
35	 H02	5.695	-2.188	0.005	 H	1	UNK1	0.000	
36	 H03	4.476	3.939	-0.133	 H	1	UNK1	0.000	
37	 H04	3.185	5.823	0.111	 H	1	UNK1	0.000	
38	 H05	-4.526	-1.620	0.406	 H	1	UNK1	0.000	
39	 H06	3.643	-3.398	0.244	 H	1	UNK1	0.000	
40	 H07	-4.666	0.769	0.223	 H	1	UNK1	0.000	
41	 H08	-4.882	3.158	0.072	 H	1	UNK1	0.000	
42	 H09	-1.501	5.271	-0.862	 H	1	UNK1	0.000	
43	 H10	1.575	-4.725	0.329	 H	1	UNK1	0.000	
44	 H11	-3.852	5.356	0.041	 H	1	UNK1	0.000	
45	 H12	-1.486	5.259	0.918	 H	1	UNK1	0.000	
46	 H14	-0.867	-4.891	0.192	 H	1	UNK1	0.000	
47	 H15	-2.963	-3.424	1.164	 H	1	UNK1	0.000	
48	 H16	-3.150	-3.481	-0.595	 H	1	UNK1	0.000	
49	 H24	0.854	-1.464	-1.641	 H	1	UNK1	0.000	
50	 H36	0.864	5.377	1.012	 H	1	UNK1	0.000	
51	 H37	0.832	5.481	-0.765	 H	1	UNK1	0.000	
52	 H46	5.333	1.685	1.120	 H	1	UNK1	0.000	
53	 H47	5.490	1.874	-0.654	 H	1	UNK1	0.000	
@<TRIPOS>BOND
1 1 2 1
2 1 3 2
3 1 7 1
4 2 4 1
5 2 8 1
6 2 49 1
7 3 5 1
8 3 9 1
9 4 6 1
10 4 10 2
11 5 6 1
12 5 11 2
13 6 12 2
14 7 13 1
15 7 15 2
16 8 14 2
17 8 23 1
18 9 18 1
19 9 21 2
20 10 16 1
21 10 26 1
22 11 17 1
23 11 20 1
24 12 19 1
25 12 22 1
26 13 21 1
27 13 47 1
28 13 48 1
29 14 15 1
30 14 43 1
31 15 46 1
32 16 19 2
33 16 25 1
34 17 22 2
35 17 32 1
36 18 20 2
37 18 40 1
38 19 29 1
39 20 31 1
40 21 38 1
41 22 28 1
42 23 26 2
43 23 39 1
44 24 25 1
45 24 27 2
46 24 34 1
47 25 52 1
48 25 53 1
49 26 27 1
50 27 35 1
51 28 30 1
52 28 50 1
53 28 51 1
54 29 30 2
55 29 36 1
56 30 37 1
57 31 33 2
58 31 41 1
59 32 33 1
60 32 42 1
61 32 45 1
62 33 44 1
@<TRIPOS>SUBSTRUCTURE
1	UNK1	1	GROUP	1 ****	UNK
