# created with PyMOL 2.5.5
@<TRIPOS>MOLECULE
9115
50 59 1                 
SMALL
USER_CHARGES
@<TRIPOS>ATOM
1	 C01	-0.579	-1.452	0.045	C.2	1	UNK1	0.000	
2	 C02	0.829	-1.359	0.026	C.2	1	UNK1	0.000	
3	 C03	-1.360	-0.276	0.050	C.2	1	UNK1	0.000	
4	 C04	1.462	-0.090	0.013	C.2	1	UNK1	0.000	
5	 C05	-0.735	0.997	0.036	C.2	1	UNK1	0.000	
6	 C06	0.679	1.092	0.018	C.2	1	UNK1	0.000	
7	 C07	-1.207	-2.722	0.059	C.2	1	UNK1	0.000	
8	 C08	1.601	-2.543	0.021	C.2	1	UNK1	0.000	
9	 C09	-2.769	-0.382	0.069	C.2	1	UNK1	0.000	
10	 C10	2.873	-0.012	-0.006	C.2	1	UNK1	0.000	
11	 C11	-1.530	2.166	0.041	C.2	1	UNK1	0.000	
12	 C12	1.307	2.363	0.004	C.2	1	UNK1	0.000	
13	 C13	-2.603	-2.802	0.077	C.2	1	UNK1	0.000	
14	 C14	0.967	-3.791	0.035	C.2	1	UNK1	0.000	
15	 C15	-0.424	-3.880	0.053	C.2	1	UNK1	0.000	
16	 C16	3.501	1.256	-0.020	C.2	1	UNK1	0.000	
17	 C17	-0.904	3.434	0.028	C.2	1	UNK1	0.000	
18	 C18	-3.543	0.780	0.073	C.2	1	UNK1	0.000	
19	 C19	2.727	2.447	-0.015	C.2	1	UNK1	0.000	
20	 C20	-2.938	2.040	0.060	C.2	1	UNK1	0.000	
21	 C21	-3.376	-1.644	0.082	C.2	1	UNK1	0.000	
22	 C22	0.513	3.542	0.009	C.2	1	UNK1	0.000	
23	 C23	2.993	-2.453	0.003	C.2	1	UNK1	0.000	
24	 C24	5.730	0.006	-0.043	C.2	1	UNK1	0.000	
25	 C25	5.022	1.327	-0.040	C.2	1	UNK1	0.000	
26	 C26	3.628	-1.207	-0.011	C.2	1	UNK1	0.000	
27	 C27	5.093	-1.170	-0.030	C.2	1	UNK1	0.000	
28	 C28	1.170	4.790	-0.005	C.2	1	UNK1	0.000	
29	 C29	3.319	3.727	-0.028	C.2	1	UNK1	0.000	
30	 C30	2.554	4.884	-0.023	C.2	1	UNK1	0.000	
31	 C31	-3.798	3.227	0.066	C.2	1	UNK1	0.000	
32	 C32	-1.771	4.686	0.033	C.2	1	UNK1	0.000	
33	 C33	-3.250	4.447	0.054	C.2	1	UNK1	0.000	
34	 H01	5.361	1.880	0.845	 H	1	UNK1	0.000	
35	 H02	5.338	1.872	-0.938	 H	1	UNK1	0.000	
36	 H03	3.036	5.858	-0.034	 H	1	UNK1	0.000	
37	 H04	6.816	0.027	-0.057	 H	1	UNK1	0.000	
38	 H05	0.610	5.722	-0.002	 H	1	UNK1	0.000	
39	 H06	5.646	-2.103	-0.033	 H	1	UNK1	0.000	
40	 H07	-4.875	3.100	0.081	 H	1	UNK1	0.000	
41	 H08	4.400	3.848	-0.043	 H	1	UNK1	0.000	
42	 H09	-3.893	5.323	0.058	 H	1	UNK1	0.000	
43	 H12	-1.545	5.276	-0.863	 H	1	UNK1	0.000	
44	 H13	-1.522	5.284	0.919	 H	1	UNK1	0.000	
45	 H25	-3.102	-3.769	0.088	 H	1	UNK1	0.000	
46	 H26	1.551	-4.709	0.032	 H	1	UNK1	0.000	
47	 H27	-0.888	-4.864	0.064	 H	1	UNK1	0.000	
48	 H30	-4.460	-1.737	0.096	 H	1	UNK1	0.000	
49	 H33	3.592	-3.361	-0.001	 H	1	UNK1	0.000	
50	 H34	-4.628	0.704	0.088	 H	1	UNK1	0.000	
@<TRIPOS>BOND
1 1 2 ar
2 1 3 ar
3 1 7 ar
4 2 4 ar
5 2 8 ar
6 3 5 ar
7 3 9 ar
8 4 6 ar
9 4 10 ar
10 5 6 ar
11 5 11 ar
12 6 12 ar
13 7 13 ar
14 7 15 ar
15 8 14 ar
16 8 23 ar
17 9 18 ar
18 9 21 ar
19 10 16 ar
20 10 26 ar
21 11 17 ar
22 11 20 ar
23 12 19 ar
24 12 22 ar
25 13 21 ar
26 13 45 1
27 14 15 ar
28 14 46 1
29 15 47 1
30 16 19 ar
31 16 25 ar
32 17 22 ar
33 17 32 ar
34 18 20 ar
35 18 50 1
36 19 29 ar
37 20 31 ar
38 21 48 1
39 22 28 ar
40 23 26 ar
41 23 49 1
42 24 25 ar
43 24 27 ar
44 24 37 1
45 25 34 1
46 25 35 1
47 26 27 ar
48 27 39 1
49 28 30 ar
50 28 38 1
51 29 30 ar
52 29 41 1
53 30 36 1
54 31 33 ar
55 31 40 1
56 32 33 ar
57 32 43 1
58 32 44 1
59 33 42 1
@<TRIPOS>SUBSTRUCTURE
1	UNK1	1	GROUP	1 ****	UNK
