# created with PyMOL 2.5.5
@<TRIPOS>MOLECULE
9115
58 68 1                 
SMALL
USER_CHARGES
@<TRIPOS>ATOM
1	 C01	-0.630	-1.442	0.486	C.2	1	UNK1	0.000	
2	 C02	0.890	-1.468	0.619	C.3	1	UNK1	0.000	
3	 C03	-1.340	-0.291	0.437	C.2	1	UNK1	0.000	
4	 C04	1.565	-0.136	0.258	C.2	1	UNK1	0.000	
5	 C05	-0.611	0.991	0.327	C.2	1	UNK1	0.000	
6	 C06	0.818	1.068	0.266	C.2	1	UNK1	0.000	
7	 C07	-1.295	-2.753	0.472	C.2	1	UNK1	0.000	
8	 C08	1.555	-2.689	0.025	C.2	1	UNK1	0.000	
9	 C09	-2.843	-0.250	0.561	C.3	1	UNK1	0.000	
10	 C10	2.931	-0.130	-0.052	C.2	1	UNK1	0.000	
11	 C11	-1.341	2.199	0.175	C.2	1	UNK1	0.000	
12	 C12	1.506	2.292	0.191	C.2	1	UNK1	0.000	
13	 C13	-2.795	-2.792	0.672	C.3	1	UNK1	0.000	
14	 C14	0.872	-3.844	-0.041	C.2	1	UNK1	0.000	
15	 C15	-0.540	-3.875	0.295	C.2	1	UNK1	0.000	
16	 C16	3.638	1.082	-0.164	C.2	1	UNK1	0.000	
17	 C17	-0.676	3.445	0.234	C.2	1	UNK1	0.000	
18	 C18	-3.489	0.979	-0.112	C.2	1	UNK1	0.000	
19	 C19	2.930	2.294	0.040	C.2	1	UNK1	0.000	
20	 C20	-2.836	2.156	-0.146	C.2	1	UNK1	0.000	
21	 C21	-3.519	-1.564	0.216	C.2	1	UNK1	0.000	
22	 C22	0.745	3.487	0.283	C.2	1	UNK1	0.000	
23	 C23	2.959	-2.591	-0.335	C.2	1	UNK1	0.000	
24	 C24	5.773	-0.307	-0.602	C.2	1	UNK1	0.000	
25	 C25	5.132	1.033	-0.492	C.3	1	UNK1	0.000	
26	 C26	3.647	-1.430	-0.288	C.2	1	UNK1	0.000	
27	 C27	5.080	-1.448	-0.524	C.2	1	UNK1	0.000	
28	 C28	1.543	4.790	0.415	C.3	1	UNK1	0.000	
29	 C29	3.653	3.581	0.093	C.2	1	UNK1	0.000	
30	 C30	2.989	4.735	0.216	C.2	1	UNK1	0.000	
31	 C31	-3.488	3.475	-0.531	C.3	1	UNK1	0.000	
32	 C32	-1.483	4.687	0.253	C.2	1	UNK1	0.000	
33	 C33	-2.791	4.664	-0.021	C.2	1	UNK1	0.000	
34	 C34	-4.713	-1.633	-0.402	C.2	1	UNK1	0.000	
35	 C35	-4.827	0.807	-0.697	C.2	1	UNK1	0.000	
36	 C36	-5.394	-0.426	-0.791	C.2	1	UNK1	0.000	
37	 H01	6.844	-0.340	-0.752	 H	1	UNK1	0.000	
38	 H02	5.569	-2.417	-0.641	 H	1	UNK1	0.000	
39	 H03	4.727	3.734	0.055	 H	1	UNK1	0.000	
40	 H04	5.670	1.585	0.298	 H	1	UNK1	0.000	
41	 H05	1.351	5.187	1.426	 H	1	UNK1	0.000	
42	 H06	-5.217	-2.570	-0.621	 H	1	UNK1	0.000	
43	 H07	-1.077	5.684	0.491	 H	1	UNK1	0.000	
44	 H08	3.557	5.663	0.177	 H	1	UNK1	0.000	
45	 H09	-4.513	3.532	-0.118	 H	1	UNK1	0.000	
46	 H10	-6.401	-0.541	-1.190	 H	1	UNK1	0.000	
47	 H11	-5.453	1.590	-1.104	 H	1	UNK1	0.000	
48	 H12	-3.347	5.593	0.120	 H	1	UNK1	0.000	
49	 H16	1.326	-4.798	-0.323	 H	1	UNK1	0.000	
50	 H17	3.470	-3.505	-0.641	 H	1	UNK1	0.000	
51	 H19	-2.980	-2.897	1.749	 H	1	UNK1	0.000	
52	 H20	-0.977	-4.880	0.354	 H	1	UNK1	0.000	
53	 H21	-3.208	-3.674	0.168	 H	1	UNK1	0.000	
54	 H25	-3.030	-0.114	1.641	 H	1	UNK1	0.000	
55	 H27	-3.587	3.526	-1.626	 H	1	UNK1	0.000	
56	 H38	1.067	-1.564	1.703	 H	1	UNK1	0.000	
57	 H45	5.285	1.555	-1.448	 H	1	UNK1	0.000	
58	 H50	1.145	5.504	-0.334	 H	1	UNK1	0.000	
@<TRIPOS>BOND
1 1 2 1
2 1 3 2
3 1 7 1
4 2 4 1
5 2 8 1
6 2 56 1
7 3 5 1
8 3 9 1
9 4 6 1
10 4 10 2
11 5 6 1
12 5 11 2
13 6 12 2
14 7 13 1
15 7 15 2
16 8 14 2
17 8 23 1
18 9 18 1
19 9 21 1
20 9 54 1
21 10 16 1
22 10 26 1
23 11 17 1
24 11 20 1
25 12 19 1
26 12 22 1
27 13 21 1
28 13 51 1
29 13 53 1
30 14 15 1
31 14 49 1
32 15 52 1
33 16 19 2
34 16 25 1
35 17 22 2
36 17 32 1
37 18 20 2
38 18 35 1
39 19 29 1
40 20 31 1
41 21 34 2
42 22 28 1
43 23 26 2
44 23 50 1
45 24 25 1
46 24 27 2
47 24 37 1
48 25 40 1
49 25 57 1
50 26 27 1
51 27 38 1
52 28 30 1
53 28 41 1
54 28 58 1
55 29 30 2
56 29 39 1
57 30 44 1
58 31 33 1
59 31 45 1
60 31 55 1
61 32 33 2
62 32 43 1
63 33 48 1
64 34 36 1
65 34 42 1
66 35 36 2
67 35 47 1
68 36 46 1
@<TRIPOS>SUBSTRUCTURE
1	UNK1	1	GROUP	1 ****	UNK
