# created with PyMOL 2.5.5
@<TRIPOS>MOLECULE
9115
55 65 1                 
SMALL
USER_CHARGES
@<TRIPOS>ATOM
1	 C01	-0.581	-1.444	0.006	C.2	1	UNK1	0.000	
2	 C02	0.828	-1.350	0.009	C.2	1	UNK1	0.000	
3	 C03	-1.379	-0.272	0.000	C.2	1	UNK1	0.000	
4	 C04	1.456	-0.083	0.007	C.2	1	UNK1	0.000	
5	 C05	-0.756	1.002	-0.002	C.2	1	UNK1	0.000	
6	 C06	0.667	1.095	0.002	C.2	1	UNK1	0.000	
7	 C07	-1.185	-2.723	0.008	C.2	1	UNK1	0.000	
8	 C08	1.608	-2.532	0.014	C.2	1	UNK1	0.000	
9	 C09	-2.794	-0.388	-0.003	C.2	1	UNK1	0.000	
10	 C10	2.872	-0.006	0.010	C.2	1	UNK1	0.000	
11	 C11	-1.552	2.173	-0.007	C.2	1	UNK1	0.000	
12	 C12	1.306	2.360	-0.000	C.2	1	UNK1	0.000	
13	 C13	-2.572	-2.827	0.005	C.2	1	UNK1	0.000	
14	 C14	0.988	-3.783	0.016	C.2	1	UNK1	0.000	
15	 C15	-0.399	-3.878	0.013	C.2	1	UNK1	0.000	
16	 C16	3.502	1.257	0.009	C.2	1	UNK1	0.000	
17	 C17	-0.897	3.436	-0.009	C.2	1	UNK1	0.000	
18	 C18	-3.595	0.780	-0.008	C.2	1	UNK1	0.000	
19	 C19	2.728	2.445	0.003	C.2	1	UNK1	0.000	
20	 C20	-2.975	2.057	-0.010	C.2	1	UNK1	0.000	
21	 C21	-3.373	-1.680	-0.001	C.2	1	UNK1	0.000	
22	 C22	0.521	3.540	-0.006	C.2	1	UNK1	0.000	
23	 C23	2.999	-2.443	0.018	C.2	1	UNK1	0.000	
24	 C24	5.733	0.011	0.018	C.2	1	UNK1	0.000	
25	 C25	5.023	1.330	0.012	C.3	1	UNK1	0.000	
26	 C26	3.630	-1.198	0.016	C.2	1	UNK1	0.000	
27	 C27	5.095	-1.163	0.019	C.2	1	UNK1	0.000	
28	 C28	1.185	4.786	-0.008	C.2	1	UNK1	0.000	
29	 C29	3.328	3.721	0.001	C.2	1	UNK1	0.000	
30	 C30	2.568	4.880	-0.004	C.2	1	UNK1	0.000	
31	 C31	-3.776	3.301	-0.016	C.2	1	UNK1	0.000	
32	 C32	-1.727	4.709	-0.015	C.3	1	UNK1	0.000	
33	 C33	-3.201	4.506	-0.018	C.2	1	UNK1	0.000	
34	 C34	-4.870	-1.874	-0.004	C.3	1	UNK1	0.000	
35	 C35	-5.068	0.610	-0.012	C.2	1	UNK1	0.000	
36	 C36	-5.643	-0.599	-0.010	C.2	1	UNK1	0.000	
37	 H01	5.348	1.882	0.903	 H	1	UNK1	0.000	
38	 H02	5.353	1.876	-0.880	 H	1	UNK1	0.000	
39	 H03	3.052	5.853	-0.006	 H	1	UNK1	0.000	
40	 H04	6.819	0.032	0.021	 H	1	UNK1	0.000	
41	 H05	0.631	5.722	-0.012	 H	1	UNK1	0.000	
42	 H06	5.647	-2.097	0.024	 H	1	UNK1	0.000	
43	 H07	-4.856	3.260	-0.019	 H	1	UNK1	0.000	
44	 H08	4.408	3.839	0.003	 H	1	UNK1	0.000	
45	 H09	-3.824	5.396	-0.022	 H	1	UNK1	0.000	
46	 H10	-5.156	-2.449	0.885	 H	1	UNK1	0.000	
47	 H11	-5.152	-2.454	-0.891	 H	1	UNK1	0.000	
48	 H12	-1.475	5.294	-0.908	 H	1	UNK1	0.000	
49	 H13	-1.479	5.299	0.876	 H	1	UNK1	0.000	
50	 H14	-6.726	-0.677	-0.012	 H	1	UNK1	0.000	
51	 H15	-5.718	1.474	-0.016	 H	1	UNK1	0.000	
52	 H25	-3.046	-3.807	0.006	 H	1	UNK1	0.000	
53	 H26	1.577	-4.698	0.021	 H	1	UNK1	0.000	
54	 H27	-0.858	-4.864	0.015	 H	1	UNK1	0.000	
55	 H33	3.598	-3.351	0.022	 H	1	UNK1	0.000	
@<TRIPOS>BOND
1 1 2 1
2 1 3 1
3 1 7 2
4 2 4 1
5 2 8 2
6 3 5 1
7 3 9 2
8 4 6 1
9 4 10 2
10 5 6 1
11 5 11 2
12 6 12 2
13 7 13 1
14 7 15 1
15 8 14 1
16 8 23 1
17 9 18 1
18 9 21 1
19 10 16 1
20 10 26 1
21 11 17 1
22 11 20 1
23 12 19 1
24 12 22 1
25 13 21 2
26 13 52 1
27 14 15 2
28 14 53 1
29 15 54 1
30 16 19 2
31 16 25 1
32 17 22 2
33 17 32 1
34 18 20 2
35 18 35 1
36 19 29 2
37 20 31 1
38 21 34 1
39 22 28 1
40 23 26 2
41 23 55 1
42 24 40 1
43 24 25 1
44 25 37 1
45 25 38 1
46 26 27 1
47 24 27 2
48 27 42 1
49 28 41 1
50 29 30 1
51 29 44 1
52 28 30 2
53 30 39 1
54 31 33 2
55 31 43 1
56 32 48 1
57 32 49 1
58 32 33 1
59 33 45 1
60 34 36 1
61 34 46 1
62 34 47 1
63 35 51 1
64 35 36 2
65 36 50 1
@<TRIPOS>SUBSTRUCTURE
1	UNK1	1	GROUP	1 ****	UNK
