# created with PyMOL 2.5.5
@<TRIPOS>MOLECULE
9115
60 71 1                 
SMALL
USER_CHARGES
@<TRIPOS>ATOM
1	 C01	-0.592	-1.451	-0.043	C.2	1	UNK1	0.000	
2	 C02	0.820	-1.348	-0.036	C.2	1	UNK1	0.000	
3	 C03	-1.388	-0.277	-0.029	C.2	1	UNK1	0.000	
4	 C04	1.450	-0.081	-0.015	C.2	1	UNK1	0.000	
5	 C05	-0.760	1.000	-0.015	C.2	1	UNK1	0.000	
6	 C06	0.662	1.095	-0.005	C.2	1	UNK1	0.000	
7	 C07	-1.195	-2.736	-0.062	C.2	1	UNK1	0.000	
8	 C08	1.609	-2.521	-0.051	C.2	1	UNK1	0.000	
9	 C09	-2.803	-0.387	-0.028	C.2	1	UNK1	0.000	
10	 C10	2.868	-0.001	-0.006	C.2	1	UNK1	0.000	
11	 C11	-1.549	2.177	-0.014	C.2	1	UNK1	0.000	
12	 C12	1.305	2.361	0.016	C.2	1	UNK1	0.000	
13	 C13	-2.597	-2.847	-0.066	C.2	1	UNK1	0.000	
14	 C14	1.003	-3.776	-0.073	C.2	1	UNK1	0.000	
15	 C15	-0.385	-3.891	-0.079	C.2	1	UNK1	0.000	
16	 C16	3.500	1.261	0.017	C.2	1	UNK1	0.000	
17	 C17	-0.893	3.440	0.005	C.2	1	UNK1	0.000	
18	 C18	-3.592	0.794	-0.010	C.2	1	UNK1	0.000	
19	 C19	2.727	2.448	0.029	C.2	1	UNK1	0.000	
20	 C20	-2.969	2.068	-0.029	C.2	1	UNK1	0.000	
21	 C21	-3.395	-1.679	-0.047	C.2	1	UNK1	0.000	
22	 C22	0.524	3.542	0.024	C.2	1	UNK1	0.000	
23	 C23	2.999	-2.432	-0.042	C.2	1	UNK1	0.000	
24	 C24	5.732	0.019	0.012	C.2	1	UNK1	0.000	
25	 C25	5.021	1.336	0.029	C.2	1	UNK1	0.000	
26	 C26	3.629	-1.189	-0.020	C.2	1	UNK1	0.000	
27	 C27	5.094	-1.156	-0.011	C.2	1	UNK1	0.000	
28	 C28	1.188	4.788	0.053	C.2	1	UNK1	0.000	
29	 C29	3.328	3.723	0.055	C.2	1	UNK1	0.000	
30	 C30	2.570	4.882	0.068	C.2	1	UNK1	0.000	
31	 C31	-3.767	3.313	-0.084	C.2	1	UNK1	0.000	
32	 C32	-1.720	4.715	0.016	C.2	1	UNK1	0.000	
33	 C33	-3.191	4.518	-0.059	C.2	1	UNK1	0.000	
34	 C34	-4.905	-1.828	-0.063	C.2	1	UNK1	0.000	
35	 C35	-5.065	0.649	0.048	C.2	1	UNK1	0.000	
36	 C36	-5.658	-0.548	0.019	C.2	1	UNK1	0.000	
37	 C37	-0.973	-5.234	-0.106	C.2	1	UNK1	0.000	
38	 C38	-3.251	-4.220	-0.089	C.2	1	UNK1	0.000	
39	 C39	-2.302	-5.378	-0.111	C.2	1	UNK1	0.000	
40	 H01	5.341	1.870	0.931	 H	1	UNK1	0.000	
41	 H02	5.354	1.899	-0.851	 H	1	UNK1	0.000	
42	 H03	3.055	5.854	0.089	 H	1	UNK1	0.000	
43	 H04	6.818	0.040	0.018	 H	1	UNK1	0.000	
44	 H05	0.635	5.724	0.065	 H	1	UNK1	0.000	
45	 H06	5.646	-2.090	-0.023	 H	1	UNK1	0.000	
46	 H07	-4.843	3.275	-0.170	 H	1	UNK1	0.000	
47	 H08	4.408	3.839	0.066	 H	1	UNK1	0.000	
48	 H09	-3.810	5.409	-0.107	 H	1	UNK1	0.000	
49	 H10	-5.212	-2.443	0.791	 H	1	UNK1	0.000	
50	 H11	-5.205	-2.337	-0.986	 H	1	UNK1	0.000	
51	 H12	-1.433	5.330	-0.846	 H	1	UNK1	0.000	
52	 H13	-1.504	5.273	0.935	 H	1	UNK1	0.000	
53	 H14	-6.741	-0.611	0.070	 H	1	UNK1	0.000	
54	 H15	-5.700	1.519	0.139	 H	1	UNK1	0.000	
55	 H16	-0.318	-6.098	-0.121	 H	1	UNK1	0.000	
56	 H17	-2.733	-6.374	-0.131	 H	1	UNK1	0.000	
57	 H19	-3.882	-4.328	0.800	 H	1	UNK1	0.000	
58	 H21	-3.886	-4.296	-0.980	 H	1	UNK1	0.000	
59	 H26	1.616	-4.674	-0.085	 H	1	UNK1	0.000	
60	 H33	3.601	-3.339	-0.053	 H	1	UNK1	0.000	
@<TRIPOS>BOND
1 1 2 ar
2 1 3 ar
3 1 7 ar
4 2 4 ar
5 2 8 ar
6 3 5 ar
7 3 9 ar
8 4 6 ar
9 4 10 ar
10 5 6 ar
11 5 11 ar
12 6 12 ar
13 7 13 ar
14 7 15 ar
15 8 14 ar
16 8 23 ar
17 9 18 ar
18 9 21 ar
19 10 16 ar
20 10 26 ar
21 11 17 ar
22 11 20 ar
23 12 19 ar
24 12 22 ar
25 13 21 ar
26 13 38 ar
27 14 15 ar
28 14 59 1
29 15 37 ar
30 16 19 ar
31 16 25 ar
32 17 22 ar
33 17 32 ar
34 18 20 ar
35 18 35 ar
36 19 29 ar
37 20 31 ar
38 21 34 ar
39 22 28 ar
40 23 26 ar
41 23 60 1
42 24 25 ar
43 24 27 ar
44 24 43 1
45 25 40 1
46 25 41 1
47 26 27 ar
48 27 45 1
49 28 30 ar
50 28 44 1
51 29 30 ar
52 29 47 1
53 30 42 1
54 31 33 ar
55 31 46 1
56 32 33 ar
57 32 51 1
58 32 52 1
59 33 48 1
60 34 36 ar
61 34 49 1
62 34 50 1
63 35 36 ar
64 35 54 1
65 36 53 1
66 37 39 ar
67 37 55 1
68 38 39 ar
69 38 57 1
70 38 58 1
71 39 56 1
@<TRIPOS>SUBSTRUCTURE
1	UNK1	1	GROUP	1 ****	UNK
