# created with PyMOL 2.5.5
@<TRIPOS>MOLECULE
9115
61 72 1                 
SMALL
USER_CHARGES
@<TRIPOS>ATOM
1	 C01	-0.635	-1.443	0.331	C.2	1	UNK1	0.000	
2	 C02	0.874	-1.448	0.594	C.3	1	UNK1	0.000	
3	 C03	-1.290	-0.282	0.309	C.2	1	UNK1	0.000	
4	 C04	1.609	-0.161	0.235	C.2	1	UNK1	0.000	
5	 C05	-0.549	1.009	0.248	C.2	1	UNK1	0.000	
6	 C06	0.870	1.040	0.191	C.2	1	UNK1	0.000	
7	 C07	-1.343	-2.719	0.147	C.2	1	UNK1	0.000	
8	 C08	1.567	-2.722	0.146	C.2	1	UNK1	0.000	
9	 C09	-2.801	-0.294	0.436	C.3	1	UNK1	0.000	
10	 C10	2.989	-0.193	0.010	C.2	1	UNK1	0.000	
11	 C11	-1.288	2.206	0.168	C.2	1	UNK1	0.000	
12	 C12	1.572	2.257	0.077	C.2	1	UNK1	0.000	
13	 C13	-2.740	-2.812	-0.020	C.2	1	UNK1	0.000	
14	 C14	0.915	-3.883	-0.008	C.2	1	UNK1	0.000	
15	 C15	-0.570	-3.920	0.045	C.2	1	UNK1	0.000	
16	 C16	3.709	1.004	-0.145	C.2	1	UNK1	0.000	
17	 C17	-0.590	3.449	0.205	C.2	1	UNK1	0.000	
18	 C18	-3.465	1.028	-0.032	C.2	1	UNK1	0.000	
19	 C19	3.001	2.233	-0.064	C.2	1	UNK1	0.000	
20	 C20	-2.795	2.207	-0.022	C.2	1	UNK1	0.000	
21	 C21	-3.528	-1.559	-0.061	C.2	1	UNK1	0.000	
22	 C22	0.834	3.464	0.108	C.2	1	UNK1	0.000	
23	 C23	3.005	-2.665	-0.080	C.2	1	UNK1	0.000	
24	 C24	5.857	-0.429	-0.338	C.2	1	UNK1	0.000	
25	 C25	5.215	0.913	-0.396	C.3	1	UNK1	0.000	
26	 C26	3.704	-1.502	-0.078	C.2	1	UNK1	0.000	
27	 C27	5.147	-1.555	-0.215	C.2	1	UNK1	0.000	
28	 C28	1.618	4.771	-0.014	C.3	1	UNK1	0.000	
29	 C29	3.731	3.513	-0.127	C.2	1	UNK1	0.000	
30	 C30	3.068	4.680	-0.165	C.2	1	UNK1	0.000	
31	 C31	-3.467	3.551	-0.224	C.3	1	UNK1	0.000	
32	 C32	-1.368	4.708	0.347	C.2	1	UNK1	0.000	
33	 C33	-2.693	4.712	0.220	C.2	1	UNK1	0.000	
34	 C34	-4.816	-1.507	-0.477	C.2	1	UNK1	0.000	
35	 C35	-4.871	0.943	-0.444	C.2	1	UNK1	0.000	
36	 C36	-5.502	-0.245	-0.585	C.2	1	UNK1	0.000	
37	 C37	-1.188	-5.166	-0.075	C.2	1	UNK1	0.000	
38	 C38	-3.344	-4.082	-0.143	C.2	1	UNK1	0.000	
39	 C39	-2.564	-5.237	-0.197	C.2	1	UNK1	0.000	
40	 H01	-5.474	-2.313	-0.785	 H	1	UNK1	0.000	
41	 H02	5.720	1.539	0.361	 H	1	UNK1	0.000	
42	 H03	3.651	5.589	-0.305	 H	1	UNK1	0.000	
43	 H04	5.415	1.335	-1.393	 H	1	UNK1	0.000	
44	 H05	4.809	3.657	-0.143	 H	1	UNK1	0.000	
45	 H06	6.935	-0.480	-0.400	 H	1	UNK1	0.000	
46	 H07	-0.922	5.687	0.581	 H	1	UNK1	0.000	
47	 H09	-4.415	3.590	0.351	 H	1	UNK1	0.000	
48	 H10	-6.569	-0.289	-0.823	 H	1	UNK1	0.000	
49	 H11	-4.413	-4.287	-0.148	 H	1	UNK1	0.000	
50	 H12	-3.222	5.642	0.441	 H	1	UNK1	0.000	
51	 H14	-5.541	1.766	-0.682	 H	1	UNK1	0.000	
52	 H16	-3.065	-6.197	-0.331	 H	1	UNK1	0.000	
53	 H17	-0.564	-6.067	-0.087	 H	1	UNK1	0.000	
54	 H18	1.459	-4.809	-0.197	 H	1	UNK1	0.000	
55	 H19	3.507	-3.619	-0.266	 H	1	UNK1	0.000	
56	 H20	5.634	-2.533	-0.221	 H	1	UNK1	0.000	
57	 H24	-2.964	-0.327	1.524	 H	1	UNK1	0.000	
58	 H30	-3.737	3.659	-1.288	 H	1	UNK1	0.000	
59	 H36	1.415	5.368	0.899	 H	1	UNK1	0.000	
60	 H37	1.216	5.321	-0.885	 H	1	UNK1	0.000	
61	 H44	0.947	-1.460	1.693	 H	1	UNK1	0.000	
@<TRIPOS>BOND
1 1 2 1
2 1 3 2
3 1 7 1
4 2 4 1
5 2 8 1
6 2 61 1
7 3 5 1
8 3 9 1
9 4 6 1
10 4 10 2
11 5 6 1
12 5 11 2
13 6 12 2
14 7 13 1
15 7 15 2
16 8 14 2
17 8 23 1
18 9 18 1
19 9 21 1
20 9 57 1
21 10 16 1
22 10 26 1
23 11 17 1
24 11 20 1
25 12 19 1
26 12 22 1
27 13 21 1
28 13 38 2
29 14 15 1
30 14 54 1
31 15 37 1
32 16 19 2
33 16 25 1
34 17 22 2
35 17 32 1
36 18 20 2
37 18 35 1
38 19 29 1
39 20 31 1
40 21 34 2
41 22 28 1
42 23 26 2
43 23 55 1
44 24 25 1
45 24 27 2
46 24 45 1
47 25 41 1
48 25 43 1
49 26 27 1
50 27 56 1
51 28 30 1
52 28 59 1
53 28 60 1
54 29 30 2
55 29 44 1
56 30 42 1
57 31 33 1
58 31 47 1
59 31 58 1
60 32 33 2
61 32 46 1
62 33 50 1
63 34 36 1
64 34 40 1
65 35 36 2
66 35 51 1
67 36 48 1
68 37 39 2
69 37 53 1
70 38 39 1
71 38 49 1
72 39 52 1
@<TRIPOS>SUBSTRUCTURE
1	UNK1	1	GROUP	1 ****	UNK
