# created with PyMOL 2.5.5
@<TRIPOS>MOLECULE
9115
65 77 1                 
SMALL
USER_CHARGES
@<TRIPOS>ATOM
1	 C01	-0.572	-1.478	-0.017	C.2	1	UNK1	0.000	
2	 C02	0.847	-1.382	0.003	C.2	1	UNK1	0.000	
3	 C03	-1.369	-0.295	-0.015	C.2	1	UNK1	0.000	
4	 C04	1.469	-0.101	0.011	C.2	1	UNK1	0.000	
5	 C05	-0.746	0.983	-0.013	C.2	1	UNK1	0.000	
6	 C06	0.673	1.078	0.002	C.2	1	UNK1	0.000	
7	 C07	-1.192	-2.757	-0.047	C.2	1	UNK1	0.000	
8	 C08	1.641	-2.562	0.025	C.2	1	UNK1	0.000	
9	 C09	-2.788	-0.388	-0.007	C.2	1	UNK1	0.000	
10	 C10	2.887	0.002	0.025	C.2	1	UNK1	0.000	
11	 C11	-1.539	2.164	-0.034	C.2	1	UNK1	0.000	
12	 C12	1.299	2.356	0.010	C.2	1	UNK1	0.000	
13	 C13	-2.604	-2.837	-0.052	C.2	1	UNK1	0.000	
14	 C14	1.010	-3.835	0.022	C.2	1	UNK1	0.000	
15	 C15	-0.396	-3.932	-0.066	C.2	1	UNK1	0.000	
16	 C16	3.495	1.282	0.034	C.2	1	UNK1	0.000	
17	 C17	-0.897	3.430	-0.030	C.2	1	UNK1	0.000	
18	 C18	-3.576	0.792	0.014	C.2	1	UNK1	0.000	
19	 C19	2.713	2.461	0.030	C.2	1	UNK1	0.000	
20	 C20	-2.956	2.060	-0.052	C.2	1	UNK1	0.000	
21	 C21	-3.393	-1.665	-0.024	C.2	1	UNK1	0.000	
22	 C22	0.514	3.536	0.000	C.2	1	UNK1	0.000	
23	 C23	3.054	-2.445	0.041	C.2	1	UNK1	0.000	
24	 C24	5.754	0.116	0.032	C.2	1	UNK1	0.000	
25	 C25	5.011	1.404	0.051	C.2	1	UNK1	0.000	
26	 C26	3.672	-1.176	0.031	C.2	1	UNK1	0.000	
27	 C27	5.145	-1.071	0.020	C.2	1	UNK1	0.000	
28	 C28	1.164	4.790	0.023	C.2	1	UNK1	0.000	
29	 C29	3.305	3.743	0.048	C.2	1	UNK1	0.000	
30	 C30	2.543	4.897	0.046	C.2	1	UNK1	0.000	
31	 C31	-3.761	3.295	-0.175	C.2	1	UNK1	0.000	
32	 C32	-1.728	4.703	-0.036	C.2	1	UNK1	0.000	
33	 C33	-3.194	4.503	-0.159	C.2	1	UNK1	0.000	
34	 C34	-4.906	-1.802	-0.045	C.2	1	UNK1	0.000	
35	 C35	-5.046	0.664	0.144	C.2	1	UNK1	0.000	
36	 C36	-5.650	-0.526	0.109	C.2	1	UNK1	0.000	
37	 C37	-1.066	-5.243	-0.221	C.2	1	UNK1	0.000	
38	 C38	-3.301	-4.187	-0.055	C.2	1	UNK1	0.000	
39	 C39	-2.396	-5.356	-0.207	C.2	1	UNK1	0.000	
40	 C40	1.849	-5.047	0.149	C.2	1	UNK1	0.000	
41	 C41	3.921	-3.693	0.048	C.2	1	UNK1	0.000	
42	 C42	3.181	-4.977	0.152	C.2	1	UNK1	0.000	
43	 H01	5.315	1.944	0.956	 H	1	UNK1	0.000	
44	 H02	5.331	1.976	-0.828	 H	1	UNK1	0.000	
45	 H03	3.020	5.873	0.063	 H	1	UNK1	0.000	
46	 H04	6.839	0.165	0.023	 H	1	UNK1	0.000	
47	 H05	0.604	5.721	0.024	 H	1	UNK1	0.000	
48	 H06	5.759	-1.963	-0.002	 H	1	UNK1	0.000	
49	 H07	-4.831	3.242	-0.322	 H	1	UNK1	0.000	
50	 H08	4.384	3.872	0.066	 H	1	UNK1	0.000	
51	 H09	-3.813	5.389	-0.263	 H	1	UNK1	0.000	
52	 H10	-5.217	-2.456	0.778	 H	1	UNK1	0.000	
53	 H11	-5.213	-2.261	-0.992	 H	1	UNK1	0.000	
54	 H12	-1.420	5.322	-0.889	 H	1	UNK1	0.000	
55	 H13	-1.540	5.259	0.890	 H	1	UNK1	0.000	
56	 H14	-6.729	-0.585	0.218	 H	1	UNK1	0.000	
57	 H15	-5.660	1.538	0.312	 H	1	UNK1	0.000	
58	 H16	-0.485	-6.140	-0.390	 H	1	UNK1	0.000	
59	 H17	-2.855	-6.332	-0.333	 H	1	UNK1	0.000	
60	 H18	3.768	-5.885	0.258	 H	1	UNK1	0.000	
61	 H19	-3.855	-4.308	0.883	 H	1	UNK1	0.000	
62	 H20	1.394	-6.019	0.283	 H	1	UNK1	0.000	
63	 H21	-4.012	-4.221	-0.889	 H	1	UNK1	0.000	
64	 H24	4.598	-3.649	0.910	 H	1	UNK1	0.000	
65	 H25	4.516	-3.723	-0.872	 H	1	UNK1	0.000	
@<TRIPOS>BOND
1 1 2 ar
2 1 3 ar
3 1 7 ar
4 2 4 ar
5 2 8 ar
6 3 5 ar
7 3 9 ar
8 4 6 ar
9 4 10 ar
10 5 6 ar
11 5 11 ar
12 6 12 ar
13 7 13 ar
14 7 15 ar
15 8 14 ar
16 8 23 ar
17 9 18 ar
18 9 21 ar
19 10 16 ar
20 10 26 ar
21 11 17 ar
22 11 20 ar
23 12 19 ar
24 12 22 ar
25 13 21 ar
26 13 38 ar
27 14 15 ar
28 14 40 ar
29 15 37 ar
30 16 19 ar
31 16 25 ar
32 17 22 ar
33 17 32 ar
34 18 20 ar
35 18 35 ar
36 19 29 ar
37 20 31 ar
38 21 34 ar
39 22 28 ar
40 23 26 ar
41 23 41 ar
42 24 25 ar
43 24 27 ar
44 24 46 1
45 25 43 1
46 25 44 1
47 26 27 ar
48 27 48 1
49 28 30 ar
50 28 47 1
51 29 30 ar
52 29 50 1
53 30 45 1
54 31 33 ar
55 31 49 1
56 32 33 ar
57 32 54 1
58 32 55 1
59 33 51 1
60 34 36 ar
61 34 52 1
62 34 53 1
63 35 36 ar
64 35 57 1
65 36 56 1
66 37 39 ar
67 37 58 1
68 38 39 ar
69 38 61 1
70 38 63 1
71 39 59 1
72 40 42 ar
73 40 62 1
74 41 42 ar
75 41 64 1
76 41 65 1
77 42 60 1
@<TRIPOS>SUBSTRUCTURE
1	UNK1	1	GROUP	1 ****	UNK
