# created with PyMOL 2.5.5
@<TRIPOS>MOLECULE
9115
66 78 1                 
SMALL
USER_CHARGES
@<TRIPOS>ATOM
1	 C01	-0.578	-1.492	-0.109	C.2	1	UNK1	0.000	
2	 C02	0.872	-1.511	-0.535	C.3	1	UNK1	0.000	
3	 C03	-1.288	-0.359	0.080	C.2	1	UNK1	0.000	
4	 C04	1.583	-0.185	-0.226	C.2	1	UNK1	0.000	
5	 C05	-0.585	0.962	-0.001	C.2	1	UNK1	0.000	
6	 C06	0.843	1.004	-0.061	C.2	1	UNK1	0.000	
7	 C07	-1.254	-2.781	0.060	C.2	1	UNK1	0.000	
8	 C08	1.640	-2.725	-0.102	C.2	1	UNK1	0.000	
9	 C09	-2.728	-0.306	0.453	C.3	1	UNK1	0.000	
10	 C10	2.974	-0.170	-0.210	C.2	1	UNK1	0.000	
11	 C11	-1.353	2.155	0.005	C.2	1	UNK1	0.000	
12	 C12	1.492	2.247	0.056	C.2	1	UNK1	0.000	
13	 C13	-2.679	-2.886	0.183	C.2	1	UNK1	0.000	
14	 C14	1.030	-3.928	0.071	C.2	1	UNK1	0.000	
15	 C15	-0.479	-3.981	0.028	C.2	1	UNK1	0.000	
16	 C16	3.692	1.069	-0.152	C.2	1	UNK1	0.000	
17	 C17	-0.684	3.397	0.129	C.2	1	UNK1	0.000	
18	 C18	-3.486	0.912	-0.107	C.2	1	UNK1	0.000	
19	 C19	2.924	2.256	0.074	C.2	1	UNK1	0.000	
20	 C20	-2.840	2.099	-0.184	C.2	1	UNK1	0.000	
21	 C21	-3.482	-1.639	0.169	C.2	1	UNK1	0.000	
22	 C22	0.735	3.439	0.157	C.2	1	UNK1	0.000	
23	 C23	3.126	-2.656	-0.008	C.2	1	UNK1	0.000	
24	 C24	5.868	-0.221	-0.530	C.2	1	UNK1	0.000	
25	 C25	5.208	1.060	-0.274	C.3	1	UNK1	0.000	
26	 C26	3.784	-1.470	-0.232	C.2	1	UNK1	0.000	
27	 C27	5.239	-1.372	-0.499	C.2	1	UNK1	0.000	
28	 C28	1.494	4.755	0.278	C.3	1	UNK1	0.000	
29	 C29	3.624	3.535	0.345	C.2	1	UNK1	0.000	
30	 C30	2.944	4.688	0.392	C.2	1	UNK1	0.000	
31	 C31	-3.538	3.428	-0.461	C.3	1	UNK1	0.000	
32	 C32	-1.490	4.631	0.242	C.2	1	UNK1	0.000	
33	 C33	-2.813	4.614	0.021	C.2	1	UNK1	0.000	
34	 C34	-4.818	-1.659	-0.102	C.2	1	UNK1	0.000	
35	 C35	-4.900	0.760	-0.440	C.2	1	UNK1	0.000	
36	 C36	-5.532	-0.419	-0.339	C.2	1	UNK1	0.000	
37	 C37	-1.156	-5.223	-0.043	C.2	1	UNK1	0.000	
38	 C38	-3.282	-4.158	0.290	C.2	1	UNK1	0.000	
39	 C39	-2.533	-5.295	0.117	C.2	1	UNK1	0.000	
40	 C40	1.828	-5.210	0.291	C.3	1	UNK1	0.000	
41	 C41	3.885	-3.877	0.383	C.2	1	UNK1	0.000	
42	 C42	3.280	-5.052	0.465	C.2	1	UNK1	0.000	
43	 H01	6.930	-0.192	-0.763	 H	1	UNK1	0.000	
44	 H02	5.841	-2.263	-0.797	 H	1	UNK1	0.000	
45	 H03	4.692	3.655	0.540	 H	1	UNK1	0.000	
46	 H04	5.627	1.475	0.666	 H	1	UNK1	0.000	
47	 H05	3.504	5.612	0.528	 H	1	UNK1	0.000	
48	 H07	-3.369	5.534	0.197	 H	1	UNK1	0.000	
49	 H08	4.948	-3.901	0.704	 H	1	UNK1	0.000	
50	 H09	-4.513	3.486	0.049	 H	1	UNK1	0.000	
51	 H10	-5.511	-2.489	-0.228	 H	1	UNK1	0.000	
52	 H11	-6.617	-0.475	-0.478	 H	1	UNK1	0.000	
53	 H12	-1.126	5.627	0.507	 H	1	UNK1	0.000	
54	 H13	3.882	-5.925	0.699	 H	1	UNK1	0.000	
55	 H14	-5.578	1.543	-0.777	 H	1	UNK1	0.000	
56	 H16	-3.040	-6.270	0.130	 H	1	UNK1	0.000	
57	 H17	-0.699	-6.206	-0.253	 H	1	UNK1	0.000	
58	 H19	-4.333	-4.360	0.579	 H	1	UNK1	0.000	
59	 H20	1.696	-5.856	-0.599	 H	1	UNK1	0.000	
60	 H31	1.405	-5.749	1.158	 H	1	UNK1	0.000	
61	 H38	-2.738	-0.183	1.551	 H	1	UNK1	0.000	
62	 H41	-3.725	3.510	-1.540	 H	1	UNK1	0.000	
63	 H44	0.856	-1.567	-1.638	 H	1	UNK1	0.000	
64	 H48	5.479	1.740	-1.103	 H	1	UNK1	0.000	
65	 H59	1.125	5.275	1.187	 H	1	UNK1	0.000	
66	 H60	1.240	5.371	-0.606	 H	1	UNK1	0.000	
@<TRIPOS>BOND
1 1 2 1
2 1 3 2
3 1 7 1
4 2 4 1
5 2 8 1
6 2 63 1
7 3 5 1
8 3 9 1
9 4 6 1
10 4 10 2
11 5 6 1
12 5 11 2
13 6 12 2
14 7 13 1
15 7 15 2
16 8 14 2
17 8 23 1
18 9 18 1
19 9 21 1
20 9 61 1
21 10 16 1
22 10 26 1
23 11 17 1
24 11 20 1
25 12 19 1
26 12 22 1
27 13 21 1
28 13 38 2
29 14 15 1
30 14 40 1
31 15 37 1
32 16 19 2
33 16 25 1
34 17 22 2
35 17 32 1
36 18 20 2
37 18 35 1
38 19 29 1
39 20 31 1
40 21 34 2
41 22 28 1
42 23 26 2
43 23 41 1
44 24 25 1
45 24 27 2
46 24 43 1
47 25 46 1
48 25 64 1
49 26 27 1
50 27 44 1
51 28 30 1
52 28 65 1
53 28 66 1
54 29 30 2
55 29 45 1
56 30 47 1
57 31 33 1
58 31 50 1
59 31 62 1
60 32 33 2
61 32 53 1
62 33 48 1
63 34 36 1
64 34 51 1
65 35 36 2
66 35 55 1
67 36 52 1
68 37 39 2
69 37 57 1
70 38 39 1
71 38 58 1
72 39 56 1
73 40 42 1
74 40 59 1
75 40 60 1
76 41 42 2
77 41 49 1
78 42 54 1
@<TRIPOS>SUBSTRUCTURE
1	UNK1	1	GROUP	1 ****	UNK
