# created with PyMOL 2.5.5
@<TRIPOS>MOLECULE
N14
66 79 1                 
SMALL
USER_CHARGES
@<TRIPOS>ATOM
1	 C01	-0.603	-1.468	-0.034	C.2	1	UNK1	0.000	
2	 C02	0.811	-1.367	-0.024	C.2	1	UNK1	0.000	
3	 C03	-1.395	-0.284	-0.013	C.2	1	UNK1	0.000	
4	 C04	1.439	-0.093	-0.010	C.2	1	UNK1	0.000	
5	 C05	-0.767	0.993	-0.005	C.2	1	UNK1	0.000	
6	 C06	0.653	1.086	-0.006	C.2	1	UNK1	0.000	
7	 C07	-1.214	-2.752	-0.059	C.2	1	UNK1	0.000	
8	 C08	1.601	-2.543	-0.031	C.2	1	UNK1	0.000	
9	 C09	-2.812	-0.379	0.004	C.2	1	UNK1	0.000	
10	 C10	2.856	-0.002	-0.019	C.2	1	UNK1	0.000	
11	 C11	-1.554	2.175	-0.005	C.2	1	UNK1	0.000	
12	 C12	1.293	2.355	-0.004	C.2	1	UNK1	0.000	
13	 C13	-2.624	-2.836	-0.051	C.2	1	UNK1	0.000	
14	 C14	0.993	-3.814	-0.146	C.2	1	UNK1	0.000	
15	 C15	-0.411	-3.923	-0.109	C.2	1	UNK1	0.000	
16	 C16	3.484	1.261	-0.031	C.2	1	UNK1	0.000	
17	 C17	-0.900	3.438	0.001	C.2	1	UNK1	0.000	
18	 C18	-3.597	0.804	0.033	C.2	1	UNK1	0.000	
19	 C19	2.712	2.446	-0.013	C.2	1	UNK1	0.000	
20	 C20	-2.972	2.073	-0.008	C.2	1	UNK1	0.000	
21	 C21	-3.414	-1.662	-0.015	C.2	1	UNK1	0.000	
22	 C22	0.515	3.538	0.006	C.2	1	UNK1	0.000	
23	 C23	3.003	-2.434	0.062	C.2	1	UNK1	0.000	
24	 C24	5.720	0.037	-0.129	C.2	1	UNK1	0.000	
25	 C25	5.001	1.343	-0.045	C.2	1	UNK1	0.000	
26	 C26	3.626	-1.179	-0.003	C.2	1	UNK1	0.000	
27	 C27	5.105	-1.154	-0.109	C.2	1	UNK1	0.000	
28	 C28	1.177	4.786	0.022	C.2	1	UNK1	0.000	
29	 C29	3.314	3.721	-0.001	C.2	1	UNK1	0.000	
30	 C30	2.559	4.881	0.018	C.2	1	UNK1	0.000	
31	 C31	-3.770	3.318	-0.083	C.2	1	UNK1	0.000	
32	 C32	-1.724	4.715	0.016	C.2	1	UNK1	0.000	
33	 C33	-3.194	4.522	-0.065	C.2	1	UNK1	0.000	
34	 C34	-4.926	-1.800	-0.025	C.2	1	UNK1	0.000	
35	 C35	-5.069	0.671	0.132	C.2	1	UNK1	0.000	
36	 C36	-5.671	-0.520	0.097	C.2	1	UNK1	0.000	
37	 C37	-1.067	-5.247	-0.087	C.2	1	UNK1	0.000	
38	 C38	-3.313	-4.189	-0.104	C.2	1	UNK1	0.000	
39	 C39	-2.397	-5.362	-0.091	C.2	1	UNK1	0.000	
40	 C40	1.867	-4.982	-0.414	C.3	1	UNK1	0.000	
41	 C41	3.838	-3.684	0.346	C.3	1	UNK1	0.000	
42	 C42	3.188	-4.920	-0.203	C.3	1	UNK1	0.000	
43	 C43	5.872	-2.375	-0.257	C.3	1	UNK1	0.000	
44	 C44	5.281	-3.564	-0.077	C.3	1	UNK1	0.000	
45	 H01	5.340	1.852	0.865	 H	1	UNK1	0.000	
46	 H02	5.312	1.935	-0.915	 H	1	UNK1	0.000	
47	 H03	3.043	5.853	0.030	 H	1	UNK1	0.000	
48	 H04	6.801	0.097	-0.222	 H	1	UNK1	0.000	
49	 H05	0.624	5.721	0.037	 H	1	UNK1	0.000	
50	 H06	5.875	-4.469	-0.161	 H	1	UNK1	0.000	
51	 H07	-4.845	3.278	-0.186	 H	1	UNK1	0.000	
52	 H08	4.395	3.839	-0.002	 H	1	UNK1	0.000	
53	 H09	-3.812	5.413	-0.130	 H	1	UNK1	0.000	
54	 H10	-5.233	-2.431	0.818	 H	1	UNK1	0.000	
55	 H11	-5.237	-2.286	-0.957	 H	1	UNK1	0.000	
56	 H12	-1.435	5.332	-0.844	 H	1	UNK1	0.000	
57	 H13	-1.508	5.269	0.938	 H	1	UNK1	0.000	
58	 H14	-6.753	-0.578	0.180	 H	1	UNK1	0.000	
59	 H15	-5.692	1.544	0.265	 H	1	UNK1	0.000	
60	 H16	-0.469	-6.148	-0.032	 H	1	UNK1	0.000	
61	 H17	-2.851	-6.349	-0.062	 H	1	UNK1	0.000	
62	 H18	3.801	-5.794	-0.402	 H	1	UNK1	0.000	
63	 H19	-3.974	-4.286	0.766	 H	1	UNK1	0.000	
64	 H20	1.441	-5.886	-0.831	 H	1	UNK1	0.000	
65	 H21	-3.921	-4.247	-1.014	 H	1	UNK1	0.000	
66	 H22	6.928	-2.317	-0.505	 H	1	UNK1	0.000	
@<TRIPOS>BOND
1 1 2 ar
2 1 3 ar
3 1 7 ar
4 2 4 ar
5 2 8 ar
6 3 5 ar
7 3 9 ar
8 4 6 ar
9 4 10 ar
10 5 6 ar
11 5 11 ar
12 6 12 ar
13 7 13 ar
14 7 15 ar
15 8 14 ar
16 8 23 ar
17 9 18 ar
18 9 21 ar
19 10 16 ar
20 10 26 ar
21 11 17 ar
22 11 20 ar
23 12 19 ar
24 12 22 ar
25 13 21 ar
26 13 38 ar
27 14 15 ar
28 14 40 1
29 15 37 ar
30 16 19 ar
31 16 25 ar
32 17 22 ar
33 17 32 ar
34 18 20 ar
35 18 35 ar
36 19 29 ar
37 20 31 ar
38 21 34 ar
39 22 28 ar
40 23 26 ar
41 23 41 1
42 24 25 ar
43 24 27 ar
44 24 48 1
45 25 45 1
46 25 46 1
47 26 27 ar
48 27 43 1
49 28 30 ar
50 28 49 1
51 29 30 ar
52 29 52 1
53 30 47 1
54 31 33 ar
55 31 51 1
56 32 33 ar
57 32 56 1
58 32 57 1
59 33 53 1
60 34 36 ar
61 34 54 1
62 34 55 1
63 35 36 ar
64 35 59 1
65 36 58 1
66 37 39 ar
67 37 60 1
68 38 39 ar
69 38 63 1
70 38 65 1
71 39 61 1
72 40 42 1
73 40 64 1
74 41 42 1
75 41 44 1
76 42 62 1
77 43 44 1
78 43 66 1
79 44 50 1
@<TRIPOS>SUBSTRUCTURE
1	UNK1	1	GROUP	1 ****	UNK
