# created with PyMOL 2.5.5
@<TRIPOS>MOLECULE
9115
67 81 1                 
SMALL
USER_CHARGES
@<TRIPOS>ATOM
1	 C01	-0.621	-1.484	-0.003	C.2	1	UNK1	0.000	
2	 C02	0.791	-1.389	-0.001	C.2	1	UNK1	0.000	
3	 C03	-1.412	-0.296	0.018	C.2	1	UNK1	0.000	
4	 C04	1.410	-0.116	0.024	C.2	1	UNK1	0.000	
5	 C05	-0.784	0.981	0.004	C.2	1	UNK1	0.000	
6	 C06	0.631	1.066	0.004	C.2	1	UNK1	0.000	
7	 C07	-1.230	-2.766	-0.023	C.2	1	UNK1	0.000	
8	 C08	1.591	-2.562	-0.035	C.2	1	UNK1	0.000	
9	 C09	-2.827	-0.384	0.045	C.2	1	UNK1	0.000	
10	 C10	2.821	-0.024	0.049	C.2	1	UNK1	0.000	
11	 C11	-1.558	2.170	-0.020	C.2	1	UNK1	0.000	
12	 C12	1.280	2.329	-0.044	C.2	1	UNK1	0.000	
13	 C13	-2.640	-2.845	0.003	C.2	1	UNK1	0.000	
14	 C14	0.982	-3.829	-0.157	C.2	1	UNK1	0.000	
15	 C15	-0.424	-3.937	-0.091	C.2	1	UNK1	0.000	
16	 C16	3.446	1.227	0.091	C.2	1	UNK1	0.000	
17	 C17	-0.890	3.428	-0.077	C.2	1	UNK1	0.000	
18	 C18	-3.607	0.806	0.066	C.2	1	UNK1	0.000	
19	 C19	2.697	2.402	-0.036	C.2	1	UNK1	0.000	
20	 C20	-2.976	2.075	0.009	C.2	1	UNK1	0.000	
21	 C21	-3.429	-1.668	0.044	C.2	1	UNK1	0.000	
22	 C22	0.527	3.518	-0.104	C.2	1	UNK1	0.000	
23	 C23	2.997	-2.444	0.021	C.2	1	UNK1	0.000	
24	 C24	5.685	0.079	-0.055	C.2	1	UNK1	0.000	
25	 C25	4.939	1.310	0.388	C.2	1	UNK1	0.000	
26	 C26	3.605	-1.182	0.010	C.2	1	UNK1	0.000	
27	 C27	5.078	-1.114	-0.185	C.2	1	UNK1	0.000	
28	 C28	1.224	4.747	-0.195	C.2	1	UNK1	0.000	
29	 C29	3.358	3.638	-0.176	C.2	1	UNK1	0.000	
30	 C30	2.615	4.808	-0.249	C.2	1	UNK1	0.000	
31	 C31	-3.764	3.328	-0.040	C.2	1	UNK1	0.000	
32	 C32	-1.702	4.712	-0.114	C.3	1	UNK1	0.000	
33	 C33	-3.177	4.526	-0.094	C.2	1	UNK1	0.000	
34	 C34	-4.941	-1.803	0.062	C.3	1	UNK1	0.000	
35	 C35	-5.079	0.675	0.156	C.2	1	UNK1	0.000	
36	 C36	-5.682	-0.517	0.150	C.2	1	UNK1	0.000	
37	 C37	-1.083	-5.260	-0.063	C.2	1	UNK1	0.000	
38	 C38	-3.330	-4.198	-0.035	C.3	1	UNK1	0.000	
39	 C39	-2.414	-5.372	-0.041	C.2	1	UNK1	0.000	
40	 C40	1.852	-4.992	-0.458	C.2	1	UNK1	0.000	
41	 C41	3.872	-3.685	0.175	C.2	1	UNK1	0.000	
42	 C42	3.184	-4.921	-0.327	C.2	1	UNK1	0.000	
43	 C43	5.823	-2.305	-0.552	C.2	1	UNK1	0.000	
44	 C44	5.254	-3.514	-0.416	C.2	1	UNK1	0.000	
45	 C45	5.556	2.594	-0.104	C.2	1	UNK1	0.000	
46	 C46	4.819	3.692	-0.333	C.2	1	UNK1	0.000	
47	 H02	6.636	2.649	-0.204	 H	1	UNK1	0.000	
48	 H03	3.102	5.774	-0.356	 H	1	UNK1	0.000	
49	 H04	6.760	0.161	-0.185	 H	1	UNK1	0.000	
50	 H05	0.689	5.692	-0.249	 H	1	UNK1	0.000	
51	 H06	5.831	-4.401	-0.661	 H	1	UNK1	0.000	
52	 H07	-4.844	3.301	-0.052	 H	1	UNK1	0.000	
53	 H08	5.279	4.623	-0.644	 H	1	UNK1	0.000	
54	 H09	-3.790	5.422	-0.135	 H	1	UNK1	0.000	
55	 H10	-5.235	-2.407	0.929	 H	1	UNK1	0.000	
56	 H11	-5.267	-2.316	-0.850	 H	1	UNK1	0.000	
57	 H12	-1.454	5.263	-1.029	 H	1	UNK1	0.000	
58	 H13	-1.432	5.328	0.753	 H	1	UNK1	0.000	
59	 H14	-6.764	-0.570	0.223	 H	1	UNK1	0.000	
60	 H15	-5.705	1.551	0.250	 H	1	UNK1	0.000	
61	 H16	-0.486	-6.162	-0.021	 H	1	UNK1	0.000	
62	 H17	-2.868	-6.358	-0.007	 H	1	UNK1	0.000	
63	 H18	3.786	-5.797	-0.552	 H	1	UNK1	0.000	
64	 H19	-3.975	-4.294	0.846	 H	1	UNK1	0.000	
65	 H20	1.411	-5.905	-0.840	 H	1	UNK1	0.000	
66	 H21	-3.955	-4.257	-0.934	 H	1	UNK1	0.000	
67	 H22	6.841	-2.207	-0.916	 H	1	UNK1	0.000	
@<TRIPOS>BOND
1 1 2 1
2 1 3 1
3 1 7 2
4 2 4 1
5 2 8 2
6 3 5 1
7 3 9 2
8 4 6 1
9 4 10 2
10 5 6 1
11 5 11 2
12 6 12 2
13 7 13 1
14 7 15 1
15 8 14 1
16 8 23 1
17 9 18 1
18 9 21 1
19 10 16 1
20 10 26 1
21 11 17 1
22 11 20 1
23 12 19 1
24 12 22 1
25 13 21 2
26 13 38 1
27 14 15 2
28 14 40 1
29 15 37 1
30 16 19 2
31 16 25 2
32 17 22 2
33 17 32 1
34 18 20 2
35 18 35 1
36 19 29 2
37 20 31 1
38 21 34 1
39 22 28 1
40 23 26 2
41 23 41 2
42 24 25 1
43 24 27 2
44 24 49 1
45 25 45 1
46 26 27 1
47 27 43 1
48 28 30 2
49 28 50 1
50 29 30 1
51 29 46 1
52 30 48 1
53 31 33 2
54 31 52 1
55 32 33 1
56 32 57 1
57 32 58 1
58 33 54 1
59 34 36 1
60 34 55 1
61 34 56 1
62 35 36 2
63 35 60 1
64 36 59 1
65 37 39 2
66 37 61 1
67 38 39 1
68 38 64 1
69 38 66 1
70 39 62 1
71 40 42 2
72 40 65 1
73 41 42 1
74 41 44 1
75 42 63 1
76 43 44 2
77 43 67 1
78 44 51 1
79 45 46 2
80 45 47 1
81 46 53 1
@<TRIPOS>SUBSTRUCTURE
1	UNK1	1	GROUP	1 ****	UNK
