# created with PyMOL 2.5.5
@<TRIPOS>MOLECULE
9115
69 84 1                 
SMALL
USER_CHARGES
@<TRIPOS>ATOM
1	 C01	-0.621	-1.463	0.016	C.2	1	UNK1	0.000	
2	 C02	0.791	-1.367	0.031	C.2	1	UNK1	0.000	
3	 C03	-1.414	-0.281	0.038	C.2	1	UNK1	0.000	
4	 C04	1.410	-0.098	0.043	C.2	1	UNK1	0.000	
5	 C05	-0.785	0.995	0.030	C.2	1	UNK1	0.000	
6	 C06	0.631	1.082	0.021	C.2	1	UNK1	0.000	
7	 C07	-1.227	-2.743	-0.034	C.2	1	UNK1	0.000	
8	 C08	1.591	-2.539	0.025	C.2	1	UNK1	0.000	
9	 C09	-2.827	-0.381	0.057	C.2	1	UNK1	0.000	
10	 C10	2.821	-0.013	0.050	C.2	1	UNK1	0.000	
11	 C11	-1.561	2.181	0.014	C.2	1	UNK1	0.000	
12	 C12	1.281	2.342	-0.038	C.2	1	UNK1	0.000	
13	 C13	-2.629	-2.842	-0.030	C.2	1	UNK1	0.000	
14	 C14	0.985	-3.797	-0.075	C.2	1	UNK1	0.000	
15	 C15	-0.420	-3.898	-0.108	C.2	1	UNK1	0.000	
16	 C16	3.450	1.235	0.067	C.2	1	UNK1	0.000	
17	 C17	-0.893	3.439	-0.047	C.2	1	UNK1	0.000	
18	 C18	-3.609	0.807	0.095	C.2	1	UNK1	0.000	
19	 C19	2.699	2.411	-0.052	C.2	1	UNK1	0.000	
20	 C20	-2.980	2.079	0.053	C.2	1	UNK1	0.000	
21	 C21	-3.423	-1.671	0.030	C.2	1	UNK1	0.000	
22	 C22	0.525	3.530	-0.092	C.2	1	UNK1	0.000	
23	 C23	2.989	-2.435	0.066	C.2	1	UNK1	0.000	
24	 C24	5.679	0.072	-0.135	C.3	1	UNK1	0.000	
25	 C25	4.950	1.310	0.327	C.3	1	UNK1	0.000	
26	 C26	3.599	-1.176	0.015	C.2	1	UNK1	0.000	
27	 C27	5.064	-1.121	-0.233	C.3	1	UNK1	0.000	
28	 C28	1.224	4.757	-0.197	C.2	1	UNK1	0.000	
29	 C29	3.359	3.644	-0.209	C.2	1	UNK1	0.000	
30	 C30	2.615	4.815	-0.274	C.2	1	UNK1	0.000	
31	 C31	-3.768	3.332	0.030	C.2	1	UNK1	0.000	
32	 C32	-1.708	4.720	-0.074	C.2	1	UNK1	0.000	
33	 C33	-3.182	4.531	-0.026	C.2	1	UNK1	0.000	
34	 C34	-4.934	-1.811	0.040	C.2	1	UNK1	0.000	
35	 C35	-5.080	0.667	0.186	C.2	1	UNK1	0.000	
36	 C36	-5.678	-0.528	0.158	C.2	1	UNK1	0.000	
37	 C37	-1.016	-5.253	-0.259	C.2	1	UNK1	0.000	
38	 C38	-3.287	-4.209	-0.078	C.2	1	UNK1	0.000	
39	 C39	-2.353	-5.366	-0.236	C.2	1	UNK1	0.000	
40	 C40	1.803	-5.037	-0.225	C.2	1	UNK1	0.000	
41	 C41	3.859	-3.672	0.224	C.3	1	UNK1	0.000	
42	 C42	3.142	-4.947	-0.129	C.3	1	UNK1	0.000	
43	 C43	5.778	-2.324	-0.629	C.3	1	UNK1	0.000	
44	 C44	5.203	-3.528	-0.458	C.3	1	UNK1	0.000	
45	 C45	5.558	2.593	-0.180	C.3	1	UNK1	0.000	
46	 C46	4.818	3.692	-0.394	C.3	1	UNK1	0.000	
47	 C47	1.160	-6.324	-0.441	C.2	1	UNK1	0.000	
48	 C48	-0.177	-6.428	-0.446	C.2	1	UNK1	0.000	
49	 H02	6.635	2.645	-0.302	 H	1	UNK1	0.000	
50	 H03	3.102	5.780	-0.393	 H	1	UNK1	0.000	
51	 H04	6.748	0.151	-0.308	 H	1	UNK1	0.000	
52	 H05	0.689	5.703	-0.246	 H	1	UNK1	0.000	
53	 H06	5.750	-4.424	-0.735	 H	1	UNK1	0.000	
54	 H07	-4.849	3.304	0.045	 H	1	UNK1	0.000	
55	 H08	5.274	4.622	-0.716	 H	1	UNK1	0.000	
56	 H09	-3.797	5.427	-0.047	 H	1	UNK1	0.000	
57	 H10	-5.227	-2.442	0.887	 H	1	UNK1	0.000	
58	 H11	-5.255	-2.300	-0.887	 H	1	UNK1	0.000	
59	 H12	-1.477	5.269	-0.995	 H	1	UNK1	0.000	
60	 H13	-1.424	5.340	0.786	 H	1	UNK1	0.000	
61	 H14	-6.760	-0.587	0.232	 H	1	UNK1	0.000	
62	 H15	-5.709	1.539	0.297	 H	1	UNK1	0.000	
63	 H16	1.776	-7.207	-0.580	 H	1	UNK1	0.000	
64	 H17	-2.823	-6.340	-0.344	 H	1	UNK1	0.000	
65	 H18	3.751	-5.844	-0.208	 H	1	UNK1	0.000	
66	 H19	-3.859	-4.362	0.845	 H	1	UNK1	0.000	
67	 H20	-0.647	-7.395	-0.595	 H	1	UNK1	0.000	
68	 H21	-3.982	-4.237	-0.926	 H	1	UNK1	0.000	
69	 H22	6.774	-2.237	-1.053	 H	1	UNK1	0.000	
@<TRIPOS>BOND
1 1 2 ar
2 1 3 ar
3 1 7 ar
4 2 4 ar
5 2 8 ar
6 3 5 ar
7 3 9 ar
8 4 6 ar
9 4 10 ar
10 5 6 ar
11 5 11 ar
12 6 12 ar
13 7 13 ar
14 7 15 ar
15 8 14 ar
16 8 23 ar
17 9 18 ar
18 9 21 ar
19 10 16 ar
20 10 26 ar
21 11 17 ar
22 11 20 ar
23 12 19 ar
24 12 22 ar
25 13 21 ar
26 13 38 ar
27 14 15 ar
28 14 40 ar
29 15 37 ar
30 16 19 ar
31 16 25 1
32 17 22 ar
33 17 32 ar
34 18 20 ar
35 18 35 ar
36 19 29 ar
37 20 31 ar
38 21 34 ar
39 22 28 ar
40 23 26 ar
41 23 41 1
42 24 25 1
43 24 27 1
44 24 51 1
45 25 45 1
46 26 27 1
47 27 43 1
48 28 30 ar
49 28 52 1
50 29 30 ar
51 29 46 1
52 30 50 1
53 31 33 ar
54 31 54 1
55 32 33 ar
56 32 59 1
57 32 60 1
58 33 56 1
59 34 36 ar
60 34 57 1
61 34 58 1
62 35 36 ar
63 35 62 1
64 36 61 1
65 37 39 ar
66 37 48 ar
67 38 39 ar
68 38 66 1
69 38 68 1
70 39 64 1
71 40 42 1
72 40 47 ar
73 41 42 1
74 41 44 1
75 42 65 1
76 43 44 1
77 43 69 1
78 44 53 1
79 45 46 1
80 45 49 1
81 46 55 1
82 47 48 ar
83 47 63 1
84 48 67 1
@<TRIPOS>SUBSTRUCTURE
1	UNK1	1	GROUP	1 ****	UNK
