# created with PyMOL 2.5.5
@<TRIPOS>MOLECULE
9115
69 85 1                 
SMALL
USER_CHARGES
@<TRIPOS>ATOM
1	 C01	-0.587	-1.442	-0.010	C.2	1	UNK1	0.000	
2	 C02	0.818	-1.350	0.016	C.2	1	UNK1	0.000	
3	 C03	-1.379	-0.262	0.031	C.2	1	UNK1	0.000	
4	 C04	1.434	-0.081	0.010	C.2	1	UNK1	0.000	
5	 C05	-0.760	1.013	0.041	C.2	1	UNK1	0.000	
6	 C06	0.653	1.100	-0.002	C.2	1	UNK1	0.000	
7	 C07	-1.193	-2.717	-0.071	C.2	1	UNK1	0.000	
8	 C08	1.608	-2.526	0.048	C.2	1	UNK1	0.000	
9	 C09	-2.786	-0.365	0.077	C.2	1	UNK1	0.000	
10	 C10	2.840	0.002	-0.003	C.2	1	UNK1	0.000	
11	 C11	-1.546	2.189	0.076	C.2	1	UNK1	0.000	
12	 C12	1.294	2.361	-0.075	C.2	1	UNK1	0.000	
13	 C13	-2.583	-2.803	-0.142	C.2	1	UNK1	0.000	
14	 C14	0.995	-3.788	0.011	C.2	1	UNK1	0.000	
15	 C15	-0.407	-3.883	-0.055	C.2	1	UNK1	0.000	
16	 C16	3.467	1.251	-0.021	C.2	1	UNK1	0.000	
17	 C17	-0.888	3.450	0.003	C.2	1	UNK1	0.000	
18	 C18	-3.575	0.795	0.246	C.2	1	UNK1	0.000	
19	 C19	2.711	2.427	-0.131	C.2	1	UNK1	0.000	
20	 C20	-2.962	2.072	0.194	C.2	1	UNK1	0.000	
21	 C21	-3.376	-1.640	-0.042	C.2	1	UNK1	0.000	
22	 C22	0.530	3.546	-0.101	C.2	1	UNK1	0.000	
23	 C23	3.004	-2.421	0.083	C.2	1	UNK1	0.000	
24	 C24	5.691	0.076	-0.247	C.3	1	UNK1	0.000	
25	 C25	4.973	1.329	0.201	C.3	1	UNK1	0.000	
26	 C26	3.614	-1.164	-0.020	C.2	1	UNK1	0.000	
27	 C27	5.074	-1.121	-0.296	C.2	1	UNK1	0.000	
28	 C28	1.225	4.772	-0.232	C.2	1	UNK1	0.000	
29	 C29	3.364	3.659	-0.315	C.2	1	UNK1	0.000	
30	 C30	2.615	4.829	-0.360	C.2	1	UNK1	0.000	
31	 C31	-3.765	3.311	0.226	C.2	1	UNK1	0.000	
32	 C32	-1.717	4.722	0.033	C.2	1	UNK1	0.000	
33	 C33	-3.190	4.516	0.154	C.2	1	UNK1	0.000	
34	 C34	-4.892	-1.806	-0.086	C.3	1	UNK1	0.000	
35	 C35	-5.015	0.604	0.553	C.3	1	UNK1	0.000	
36	 C36	-5.610	-0.592	0.426	C.3	1	UNK1	0.000	
37	 C37	-1.030	-5.237	-0.077	C.2	1	UNK1	0.000	
38	 C38	-3.280	-4.143	-0.327	C.3	1	UNK1	0.000	
39	 C39	-2.372	-5.330	-0.147	C.3	1	UNK1	0.000	
40	 C40	1.803	-5.040	-0.016	C.2	1	UNK1	0.000	
41	 C41	3.821	-3.565	0.117	C.2	1	UNK1	0.000	
42	 C42	3.145	-4.947	0.054	C.3	1	UNK1	0.000	
43	 C43	5.772	-2.343	-0.673	C.2	1	UNK1	0.000	
44	 C44	5.196	-3.539	-0.447	C.2	1	UNK1	0.000	
45	 C45	5.564	2.603	-0.349	C.3	1	UNK1	0.000	
46	 C46	4.817	3.701	-0.550	C.3	1	UNK1	0.000	
47	 C47	1.144	-6.338	-0.066	C.2	1	UNK1	0.000	
48	 C48	-0.196	-6.432	-0.072	C.2	1	UNK1	0.000	
49	 C49	-5.302	-3.086	0.629	C.3	1	UNK1	0.000	
50	 C50	-4.536	-4.192	0.519	C.3	1	UNK1	0.000	
51	 H02	6.636	2.652	-0.511	 H	1	UNK1	0.000	
52	 H03	3.096	5.793	-0.499	 H	1	UNK1	0.000	
53	 H04	6.756	0.148	-0.445	 H	1	UNK1	0.000	
54	 H05	0.687	5.717	-0.264	 H	1	UNK1	0.000	
55	 H06	5.725	-4.465	-0.672	 H	1	UNK1	0.000	
56	 H07	-4.845	3.256	0.279	 H	1	UNK1	0.000	
57	 H08	5.262	4.626	-0.901	 H	1	UNK1	0.000	
58	 H09	-3.813	5.406	0.167	 H	1	UNK1	0.000	
59	 H10	-6.223	-3.111	1.202	 H	1	UNK1	0.000	
60	 H12	-1.538	5.285	-0.891	 H	1	UNK1	0.000	
61	 H13	-1.396	5.335	0.885	 H	1	UNK1	0.000	
62	 H14	-6.667	-0.683	0.657	 H	1	UNK1	0.000	
63	 H15	-5.592	1.437	0.935	 H	1	UNK1	0.000	
64	 H16	1.752	-7.238	-0.076	 H	1	UNK1	0.000	
65	 H17	-2.846	-6.307	-0.190	 H	1	UNK1	0.000	
66	 H18	3.750	-5.850	0.066	 H	1	UNK1	0.000	
67	 H19	-4.829	-5.118	1.003	 H	1	UNK1	0.000	
68	 H20	-0.673	-7.407	-0.097	 H	1	UNK1	0.000	
69	 H22	6.754	-2.274	-1.130	 H	1	UNK1	0.000	
@<TRIPOS>BOND
1 1 2 ar
2 1 3 ar
3 1 7 ar
4 2 4 ar
5 2 8 ar
6 3 5 ar
7 3 9 ar
8 4 6 ar
9 4 10 ar
10 5 6 ar
11 5 11 ar
12 6 12 ar
13 7 13 ar
14 7 15 ar
15 8 14 ar
16 8 23 ar
17 9 18 ar
18 9 21 ar
19 10 16 ar
20 10 26 ar
21 11 17 ar
22 11 20 ar
23 12 19 ar
24 12 22 ar
25 13 21 ar
26 13 38 1
27 14 15 ar
28 14 40 ar
29 15 37 ar
30 16 19 ar
31 16 25 1
32 17 22 ar
33 17 32 ar
34 18 20 ar
35 18 35 1
36 19 29 ar
37 20 31 ar
38 21 34 1
39 22 28 ar
40 23 26 ar
41 23 41 ar
42 24 25 1
43 24 27 1
44 24 53 1
45 25 45 1
46 26 27 ar
47 27 43 ar
48 28 30 ar
49 28 54 1
50 29 30 ar
51 29 46 1
52 30 52 1
53 31 33 ar
54 31 56 1
55 32 33 ar
56 32 60 1
57 32 61 1
58 33 58 1
59 34 36 1
60 34 49 1
61 35 36 1
62 35 63 1
63 36 62 1
64 37 39 1
65 37 48 ar
66 38 39 1
67 38 50 1
68 39 65 1
69 40 42 1
70 40 47 ar
71 41 42 1
72 42 66 1
73 43 44 ar
74 43 69 1
75 41 44 ar
76 44 55 1
77 45 46 1
78 45 51 1
79 46 57 1
80 47 48 ar
81 47 64 1
82 48 68 1
83 49 50 1
84 49 59 1
85 50 67 1
@<TRIPOS>SUBSTRUCTURE
1	UNK1	1	GROUP	1 ****	UNK
