# created with PyMOL 2.5.5
@<TRIPOS>MOLECULE
9115
74 90 1                 
SMALL
USER_CHARGES
@<TRIPOS>ATOM
1	 C01	-0.517	-1.530	0.002	C.2	1	UNK1	0.000	
2	 C02	0.974	-1.530	0.023	C.2	1	UNK1	0.000	
3	 C03	-1.303	-0.258	-0.005	C.2	1	UNK1	0.000	
4	 C04	1.655	-0.208	0.016	C.2	1	UNK1	0.000	
5	 C05	-0.663	0.931	0.091	C.2	1	UNK1	0.000	
6	 C06	0.827	1.071	0.311	C.3	1	UNK1	0.000	
7	 C07	-1.154	-2.723	-0.048	C.2	1	UNK1	0.000	
8	 C08	1.705	-2.659	0.039	C.2	1	UNK1	0.000	
9	 C09	-2.795	-0.395	-0.239	C.3	1	UNK1	0.000	
10	 C10	2.968	-0.170	-0.238	C.2	1	UNK1	0.000	
11	 C11	-1.471	2.194	0.086	C.2	1	UNK1	0.000	
12	 C12	1.436	2.422	-0.111	C.2	1	UNK1	0.000	
13	 C13	-2.594	-2.860	0.235	C.2	1	UNK1	0.000	
14	 C14	1.101	-3.956	-0.162	C.2	1	UNK1	0.000	
15	 C15	-0.377	-3.992	-0.449	C.3	1	UNK1	0.000	
16	 C16	3.566	1.162	-0.696	C.3	1	UNK1	0.000	
17	 C17	-0.776	3.464	0.107	C.2	1	UNK1	0.000	
18	 C18	-3.622	0.861	0.090	C.2	1	UNK1	0.000	
19	 C19	2.806	2.468	-0.397	C.2	1	UNK1	0.000	
20	 C20	-2.901	2.157	0.106	C.2	1	UNK1	0.000	
21	 C21	-3.353	-1.594	0.570	C.3	1	UNK1	0.000	
22	 C22	0.655	3.588	-0.105	C.2	1	UNK1	0.000	
23	 C23	3.198	-2.625	0.310	C.3	1	UNK1	0.000	
24	 C24	5.805	0.081	-0.391	C.2	1	UNK1	0.000	
25	 C25	5.069	1.213	-0.483	C.2	1	UNK1	0.000	
26	 C26	3.825	-1.334	-0.144	C.2	1	UNK1	0.000	
27	 C27	5.187	-1.260	-0.296	C.2	1	UNK1	0.000	
28	 C28	1.364	4.797	-0.352	C.2	1	UNK1	0.000	
29	 C29	3.496	3.676	-0.493	C.2	1	UNK1	0.000	
30	 C30	2.759	4.853	-0.464	C.2	1	UNK1	0.000	
31	 C31	-3.620	3.359	0.133	C.2	1	UNK1	0.000	
32	 C32	-1.573	4.617	0.334	C.2	1	UNK1	0.000	
33	 C33	-2.962	4.565	0.318	C.2	1	UNK1	0.000	
34	 C34	-4.865	-1.712	0.430	C.2	1	UNK1	0.000	
35	 C35	-4.963	0.720	0.320	C.2	1	UNK1	0.000	
36	 C36	-5.598	-0.585	0.389	C.2	1	UNK1	0.000	
37	 C37	-1.083	-5.279	-0.070	C.2	1	UNK1	0.000	
38	 C38	-3.196	-4.080	0.271	C.2	1	UNK1	0.000	
39	 C39	-2.397	-5.307	0.188	C.2	1	UNK1	0.000	
40	 C40	1.815	-5.119	-0.196	C.2	1	UNK1	0.000	
41	 C41	3.943	-3.882	-0.097	C.2	1	UNK1	0.000	
42	 C42	3.293	-5.046	-0.236	C.2	1	UNK1	0.000	
43	 C43	5.958	-2.508	-0.274	C.2	1	UNK1	0.000	
44	 C44	5.376	-3.735	-0.283	C.2	1	UNK1	0.000	
45	 C45	5.691	2.530	-0.505	C.2	1	UNK1	0.000	
46	 C46	4.975	3.666	-0.606	C.2	1	UNK1	0.000	
47	 C47	1.087	-6.398	-0.240	C.2	1	UNK1	0.000	
48	 C48	-0.252	-6.477	-0.079	C.2	1	UNK1	0.000	
49	 C49	-5.446	-3.037	0.412	C.2	1	UNK1	0.000	
50	 C50	-4.663	-4.131	0.413	C.2	1	UNK1	0.000	
51	 H01	3.210	5.846	-0.550	 H	1	UNK1	0.000	
52	 H02	5.497	4.615	-0.744	 H	1	UNK1	0.000	
53	 H03	6.776	2.607	-0.461	 H	1	UNK1	0.000	
54	 H04	6.890	0.116	-0.377	 H	1	UNK1	0.000	
55	 H05	0.916	5.791	-0.509	 H	1	UNK1	0.000	
56	 H06	5.986	-4.634	-0.429	 H	1	UNK1	0.000	
57	 H07	-1.158	5.604	0.581	 H	1	UNK1	0.000	
58	 H08	7.049	-2.464	-0.292	 H	1	UNK1	0.000	
59	 H09	-3.563	5.476	0.432	 H	1	UNK1	0.000	
60	 H10	-5.134	-5.111	0.506	 H	1	UNK1	0.000	
61	 H11	3.837	-5.985	-0.395	 H	1	UNK1	0.000	
62	 H12	-4.696	3.512	-0.014	 H	1	UNK1	0.000	
63	 H13	-5.728	1.477	0.483	 H	1	UNK1	0.000	
64	 H14	-6.701	-0.588	0.428	 H	1	UNK1	0.000	
65	 H15	-6.526	-3.156	0.407	 H	1	UNK1	0.000	
66	 H16	1.653	-7.325	-0.368	 H	1	UNK1	0.000	
67	 H17	-2.935	-6.250	0.343	 H	1	UNK1	0.000	
68	 H18	-0.733	-7.452	0.038	 H	1	UNK1	0.000	
69	 H29	3.291	-2.615	1.413	 H	1	UNK1	0.000	
70	 H32	3.431	1.115	-1.788	 H	1	UNK1	0.000	
71	 H41	0.922	1.144	1.407	 H	1	UNK1	0.000	
72	 H48	-2.922	-0.588	-1.316	 H	1	UNK1	0.000	
73	 H49	-3.175	-1.401	1.643	 H	1	UNK1	0.000	
74	 H55	-0.416	-3.983	-1.554	 H	1	UNK1	0.000	
@<TRIPOS>BOND
1 1 2 1
2 1 3 1
3 1 7 2
4 2 4 1
5 2 8 2
6 3 5 2
7 3 9 1
8 4 6 1
9 4 10 2
10 5 6 1
11 5 11 1
12 6 12 1
13 6 71 1
14 7 13 1
15 7 15 1
16 8 14 1
17 8 23 1
18 9 18 1
19 9 21 1
20 9 72 1
21 10 16 1
22 10 26 1
23 11 17 2
24 11 20 1
25 12 19 1
26 12 22 2
27 13 21 1
28 13 38 2
29 14 15 1
30 14 40 2
31 15 37 1
32 15 74 1
33 16 19 1
34 16 25 1
35 16 70 1
36 17 22 1
37 17 32 1
38 18 20 1
39 18 35 2
40 19 29 2
41 20 31 2
42 21 34 1
43 21 73 1
44 22 28 1
45 23 26 1
46 23 41 1
47 23 69 1
48 24 25 2
49 24 27 1
50 24 54 1
51 25 45 1
52 26 27 2
53 27 43 1
54 28 30 2
55 28 55 1
56 29 30 1
57 29 46 1
58 30 51 1
59 31 33 1
60 31 62 1
61 32 33 2
62 32 57 1
63 33 59 1
64 34 36 2
65 34 49 1
66 35 36 1
67 35 63 1
68 36 64 1
69 37 39 2
70 37 48 1
71 38 39 1
72 38 50 1
73 39 67 1
74 40 42 1
75 40 47 1
76 41 42 2
77 41 44 1
78 42 61 1
79 43 44 2
80 43 58 1
81 44 56 1
82 45 46 2
83 45 53 1
84 46 52 1
85 47 48 2
86 47 66 1
87 48 68 1
88 49 50 2
89 49 65 1
90 50 60 1
@<TRIPOS>SUBSTRUCTURE
1	UNK1	1	GROUP	1 ****	UNK
