# created with PyMOL 2.5.5
@<TRIPOS>MOLECULE
9115
70 87 1                 
SMALL
USER_CHARGES
@<TRIPOS>ATOM
1	 C01	-0.588	-1.484	0.015	C.2	1	UNK1	0.000	
2	 C02	0.818	-1.390	-0.086	C.2	1	UNK1	0.000	
3	 C03	-1.386	-0.312	0.022	C.2	1	UNK1	0.000	
4	 C04	1.432	-0.125	-0.180	C.2	1	UNK1	0.000	
5	 C05	-0.770	0.956	-0.072	C.2	1	UNK1	0.000	
6	 C06	0.641	1.046	-0.173	C.2	1	UNK1	0.000	
7	 C07	-1.194	-2.756	0.108	C.2	1	UNK1	0.000	
8	 C08	1.611	-2.560	-0.094	C.2	1	UNK1	0.000	
9	 C09	-2.793	-0.412	0.123	C.2	1	UNK1	0.000	
10	 C10	2.840	-0.033	-0.281	C.2	1	UNK1	0.000	
11	 C11	-1.559	2.130	-0.065	C.2	1	UNK1	0.000	
12	 C12	1.267	2.308	-0.268	C.2	1	UNK1	0.000	
13	 C13	-2.595	-2.863	0.209	C.2	1	UNK1	0.000	
14	 C14	1.001	-3.828	0.000	C.2	1	UNK1	0.000	
15	 C15	-0.400	-3.927	0.101	C.2	1	UNK1	0.000	
16	 C16	3.459	1.230	-0.375	C.2	1	UNK1	0.000	
17	 C17	-0.918	3.397	-0.161	C.2	1	UNK1	0.000	
18	 C18	-3.597	0.758	0.131	C.2	1	UNK1	0.000	
19	 C19	2.674	2.399	-0.369	C.2	1	UNK1	0.000	
20	 C20	-2.971	2.044	0.036	C.2	1	UNK1	0.000	
21	 C21	-3.391	-1.699	0.217	C.2	1	UNK1	0.000	
22	 C22	0.490	3.485	-0.262	C.2	1	UNK1	0.000	
23	 C23	3.018	-2.469	-0.194	C.2	1	UNK1	0.000	
24	 C24	5.643	0.154	-0.482	C.2	1	UNK1	0.000	
25	 C25	4.863	1.313	-0.476	C.2	1	UNK1	0.000	
26	 C26	3.634	-1.202	-0.288	C.2	1	UNK1	0.000	
27	 C27	5.041	-1.108	-0.389	C.2	1	UNK1	0.000	
28	 C28	1.121	4.750	-0.357	C.2	1	UNK1	0.000	
29	 C29	3.289	3.664	-0.462	C.2	1	UNK1	0.000	
30	 C30	2.515	4.825	-0.456	C.2	1	UNK1	0.000	
31	 C31	-3.691	3.263	0.036	C.2	1	UNK1	0.000	
32	 C32	-1.679	4.586	-0.157	C.2	1	UNK1	0.000	
33	 C33	-3.063	4.505	-0.058	C.2	1	UNK1	0.000	
34	 C34	-4.790	-1.820	0.318	C.2	1	UNK1	0.000	
35	 C35	-4.998	0.578	0.235	C.2	1	UNK1	0.000	
36	 C36	-5.587	-0.683	0.327	C.2	1	UNK1	0.000	
37	 C37	-1.015	-5.193	0.195	C.2	1	UNK1	0.000	
38	 C38	-3.189	-4.143	0.302	C.2	1	UNK1	0.000	
39	 C39	-2.402	-5.298	0.295	C.2	1	UNK1	0.000	
40	 C40	1.800	-4.990	-0.008	C.2	1	UNK1	0.000	
41	 C42	3.190	-4.892	-0.108	C.2	1	UNK1	0.000	
42	 C43	5.811	-2.277	-0.395	C.2	1	UNK1	0.000	
43	 C44	5.203	-3.529	-0.302	C.2	1	UNK1	0.000	
44	 C45	5.501	2.636	-0.573	C.2	1	UNK1	0.000	
45	 C46	4.754	3.750	-0.567	C.2	1	UNK1	0.000	
46	 C47	1.155	-6.309	0.090	C.2	1	UNK1	0.000	
47	 C48	-0.180	-6.405	0.186	C.2	1	UNK1	0.000	
48	 C49	-5.411	-3.149	0.415	C.2	1	UNK1	0.000	
49	 C50	-4.651	-4.254	0.408	C.2	1	UNK1	0.000	
50	 C41	3.811	-3.640	-0.202	C.2	1	UNK1	0.000	
51	 C51	-1.044	5.830	-0.251	C.2	1	UNK1	0.000	
52	 C52	0.343	5.911	-0.350	C.2	1	UNK1	0.000	
53	 H01	-1.625	6.750	-0.249	 H	1	UNK1	0.000	
54	 H05	0.808	6.892	-0.422	 H	1	UNK1	0.000	
55	 H06	5.829	-4.419	-0.309	 H	1	UNK1	0.000	
56	 H02	6.581	2.690	-0.650	 H	1	UNK1	0.000	
57	 H03	3.001	5.796	-0.529	 H	1	UNK1	0.000	
58	 H04	6.725	0.233	-0.560	 H	1	UNK1	0.000	
59	 H07	-4.775	3.277	0.110	 H	1	UNK1	0.000	
60	 H08	5.215	4.729	-0.639	 H	1	UNK1	0.000	
61	 H09	-3.675	5.405	-0.052	 H	1	UNK1	0.000	
62	 H10	-6.490	-3.218	0.493	 H	1	UNK1	0.000	
63	 H14	-6.669	-0.760	0.405	 H	1	UNK1	0.000	
64	 H15	-5.676	1.427	0.248	 H	1	UNK1	0.000	
65	 H16	1.778	-7.196	0.083	 H	1	UNK1	0.000	
66	 H17	-2.871	-6.276	0.367	 H	1	UNK1	0.000	
67	 H18	3.795	-5.797	-0.113	 H	1	UNK1	0.000	
68	 H19	-5.099	-5.239	0.479	 H	1	UNK1	0.000	
69	 H20	-0.664	-7.373	0.259	 H	1	UNK1	0.000	
70	 H22	6.895	-2.225	-0.472	 H	1	UNK1	0.000	
@<TRIPOS>BOND
1 1 2 1
2 1 3 1
3 1 7 2
4 2 4 1
5 2 8 2
6 3 5 1
7 3 9 2
8 4 6 1
9 4 10 2
10 5 6 1
11 5 11 2
12 6 12 2
13 7 13 1
14 7 15 1
15 8 14 1
16 8 23 1
17 9 18 1
18 9 21 1
19 10 16 1
20 10 26 1
21 11 17 1
22 11 20 1
23 12 19 1
24 12 22 1
25 13 21 2
26 13 38 2
27 14 15 2
28 14 40 1
29 15 37 1
30 16 19 2
31 16 25 2
32 17 22 2
33 17 32 2
34 18 20 2
35 18 35 1
36 19 29 2
37 20 31 1
38 21 34 2
39 22 28 1
40 23 26 2
41 24 25 1
42 24 27 2
43 24 58 1
44 25 44 1
45 26 27 1
46 27 42 1
47 28 30 2
48 28 52 1
49 29 30 1
50 29 45 1
51 30 57 1
52 31 33 2
53 31 59 1
54 32 33 1
55 32 51 1
56 33 61 1
57 34 36 1
58 34 48 1
59 35 36 2
60 35 64 1
61 36 63 1
62 37 39 2
63 37 47 1
64 38 39 1
65 38 49 1
66 39 66 1
67 40 41 2
68 40 46 1
69 41 50 1
70 41 67 1
71 42 43 2
72 42 70 1
73 43 50 1
74 43 55 1
75 44 45 2
76 44 56 1
77 45 60 1
78 46 47 2
79 46 65 1
80 47 69 1
81 48 49 2
82 48 62 1
83 49 68 1
84 23 50 2
85 51 52 2
86 51 53 1
87 52 54 1
@<TRIPOS>SUBSTRUCTURE
1	UNK1	1	GROUP	1 ****	UNK
