# created with PyMOL 2.5.5
@<TRIPOS>MOLECULE
9115
70 87 1                 
SMALL
USER_CHARGES
@<TRIPOS>ATOM
1	 C01	-0.588	-1.484	0.015	C.2	1	UNK1	0.000	
2	 C02	0.818	-1.390	-0.086	C.2	1	UNK1	0.000	
3	 C03	-1.386	-0.312	0.022	C.2	1	UNK1	0.000	
4	 C04	1.432	-0.125	-0.180	C.2	1	UNK1	0.000	
5	 C05	-0.770	0.956	-0.072	C.2	1	UNK1	0.000	
6	 C06	0.641	1.046	-0.173	C.2	1	UNK1	0.000	
7	 C07	-1.194	-2.756	0.108	C.2	1	UNK1	0.000	
8	 C08	1.611	-2.560	-0.094	C.2	1	UNK1	0.000	
9	 C09	-2.793	-0.412	0.123	C.2	1	UNK1	0.000	
10	 C10	2.840	-0.033	-0.281	C.2	1	UNK1	0.000	
11	 C11	-1.559	2.130	-0.065	C.2	1	UNK1	0.000	
12	 C12	1.267	2.308	-0.268	C.2	1	UNK1	0.000	
13	 C13	-2.595	-2.863	0.209	C.2	1	UNK1	0.000	
14	 C14	1.001	-3.828	0.000	C.2	1	UNK1	0.000	
15	 C15	-0.400	-3.927	0.101	C.2	1	UNK1	0.000	
16	 C16	3.459	1.230	-0.375	C.2	1	UNK1	0.000	
17	 C17	-0.918	3.397	-0.161	C.2	1	UNK1	0.000	
18	 C18	-3.597	0.758	0.131	C.2	1	UNK1	0.000	
19	 C19	2.674	2.399	-0.369	C.2	1	UNK1	0.000	
20	 C20	-2.971	2.044	0.036	C.2	1	UNK1	0.000	
21	 C21	-3.391	-1.699	0.217	C.2	1	UNK1	0.000	
22	 C22	0.490	3.485	-0.262	C.2	1	UNK1	0.000	
23	 C23	3.018	-2.469	-0.194	C.2	1	UNK1	0.000	
24	 C24	5.643	0.154	-0.482	C.2	1	UNK1	0.000	
25	 C25	4.863	1.313	-0.476	C.2	1	UNK1	0.000	
26	 C26	3.634	-1.202	-0.288	C.2	1	UNK1	0.000	
27	 C27	5.041	-1.108	-0.389	C.2	1	UNK1	0.000	
28	 C28	1.121	4.750	-0.357	C.2	1	UNK1	0.000	
29	 C29	3.289	3.664	-0.462	C.2	1	UNK1	0.000	
30	 C30	2.515	4.825	-0.456	C.2	1	UNK1	0.000	
31	 C31	-3.691	3.263	0.036	C.2	1	UNK1	0.000	
32	 C32	-1.679	4.586	-0.157	C.2	1	UNK1	0.000	
33	 C33	-3.063	4.505	-0.058	C.2	1	UNK1	0.000	
34	 C34	-4.790	-1.820	0.318	C.2	1	UNK1	0.000	
35	 C35	-4.998	0.578	0.235	C.2	1	UNK1	0.000	
36	 C36	-5.587	-0.683	0.327	C.2	1	UNK1	0.000	
37	 C37	-1.015	-5.193	0.195	C.2	1	UNK1	0.000	
38	 C38	-3.189	-4.143	0.302	C.2	1	UNK1	0.000	
39	 C39	-2.402	-5.298	0.295	C.2	1	UNK1	0.000	
40	 C40	1.800	-4.990	-0.008	C.2	1	UNK1	0.000	
41	 C41	3.811	-3.640	-0.202	C.2	1	UNK1	0.000	
42	 C42	3.190	-4.892	-0.108	C.2	1	UNK1	0.000	
43	 C43	5.811	-2.277	-0.395	C.2	1	UNK1	0.000	
44	 C44	5.203	-3.529	-0.302	C.2	1	UNK1	0.000	
45	 C45	5.501	2.636	-0.573	C.2	1	UNK1	0.000	
46	 C46	4.754	3.750	-0.567	C.2	1	UNK1	0.000	
47	 C47	1.155	-6.309	0.090	C.2	1	UNK1	0.000	
48	 C48	-0.180	-6.405	0.186	C.2	1	UNK1	0.000	
49	 C49	-5.411	-3.149	0.415	C.2	1	UNK1	0.000	
50	 C50	-4.651	-4.254	0.408	C.2	1	UNK1	0.000	
51	 C51	-1.044	5.830	-0.251	C.2	1	UNK1	0.000	
52	 C52	0.343	5.911	-0.350	C.2	1	UNK1	0.000	
53	 H01	-1.625	6.750	-0.249	 H	1	UNK1	0.000	
54	 H02	6.581	2.690	-0.650	 H	1	UNK1	0.000	
55	 H03	3.001	5.796	-0.529	 H	1	UNK1	0.000	
56	 H04	6.725	0.233	-0.560	 H	1	UNK1	0.000	
57	 H05	0.808	6.892	-0.422	 H	1	UNK1	0.000	
58	 H06	5.829	-4.419	-0.309	 H	1	UNK1	0.000	
59	 H07	-4.775	3.277	0.110	 H	1	UNK1	0.000	
60	 H08	5.215	4.729	-0.639	 H	1	UNK1	0.000	
61	 H09	-3.675	5.405	-0.052	 H	1	UNK1	0.000	
62	 H10	-6.490	-3.218	0.493	 H	1	UNK1	0.000	
63	 H14	-6.669	-0.760	0.405	 H	1	UNK1	0.000	
64	 H15	-5.676	1.427	0.248	 H	1	UNK1	0.000	
65	 H16	1.778	-7.196	0.083	 H	1	UNK1	0.000	
66	 H17	-2.871	-6.276	0.367	 H	1	UNK1	0.000	
67	 H18	3.795	-5.797	-0.113	 H	1	UNK1	0.000	
68	 H19	-5.099	-5.239	0.479	 H	1	UNK1	0.000	
69	 H20	-0.664	-7.373	0.259	 H	1	UNK1	0.000	
70	 H22	6.895	-2.225	-0.472	 H	1	UNK1	0.000	
@<TRIPOS>BOND
1 1 2 ar
2 1 3 ar
3 1 7 ar
4 2 4 ar
5 2 8 ar
6 3 5 ar
7 3 9 ar
8 4 6 ar
9 4 10 ar
10 5 6 ar
11 5 11 ar
12 6 12 ar
13 7 13 ar
14 7 15 ar
15 8 14 ar
16 8 23 ar
17 9 18 ar
18 9 21 ar
19 10 16 ar
20 10 26 ar
21 11 17 ar
22 11 20 ar
23 12 19 ar
24 12 22 ar
25 13 21 ar
26 13 38 ar
27 14 15 ar
28 14 40 ar
29 15 37 ar
30 16 19 ar
31 16 25 ar
32 17 22 ar
33 17 32 ar
34 18 20 ar
35 18 35 ar
36 19 29 ar
37 20 31 ar
38 21 34 ar
39 22 28 ar
40 23 26 ar
41 23 41 ar
42 24 25 ar
43 24 27 ar
44 24 56 1
45 25 45 ar
46 26 27 ar
47 27 43 ar
48 28 30 ar
49 28 52 ar
50 29 30 ar
51 29 46 ar
52 30 55 1
53 31 33 ar
54 31 59 1
55 32 33 ar
56 32 51 ar
57 33 61 1
58 34 36 ar
59 34 49 ar
60 35 36 ar
61 35 64 1
62 36 63 1
63 37 39 ar
64 37 48 ar
65 38 39 ar
66 38 50 ar
67 39 66 1
68 40 42 ar
69 40 47 ar
70 41 42 ar
71 42 67 1
72 43 44 ar
73 43 70 1
74 41 44 ar
75 44 58 1
76 45 46 ar
77 45 54 1
78 46 60 1
79 47 48 ar
80 47 65 1
81 48 69 1
82 49 50 ar
83 49 62 1
84 50 68 1
85 51 52 ar
86 51 53 1
87 52 57 1
@<TRIPOS>SUBSTRUCTURE
1	UNK1	1	GROUP	1 ****	UNK
