# created with PyMOL 2.5.5
@<TRIPOS>MOLECULE
9115
76 93 1                 
SMALL
USER_CHARGES
@<TRIPOS>ATOM
1	 C01	-0.624	-1.670	-0.498	C.2	1	UNK1	0.000	
2	 C02	0.840	-1.532	-0.650	C.2	1	UNK1	0.000	
3	 C03	-1.461	-0.411	-0.678	C.3	1	UNK1	0.000	
4	 C04	1.459	-0.183	-0.640	C.2	1	UNK1	0.000	
5	 C05	-0.746	0.898	-0.444	C.2	1	UNK1	0.000	
6	 C06	0.601	1.008	-0.556	C.2	1	UNK1	0.000	
7	 C07	-1.187	-2.846	-0.145	C.2	1	UNK1	0.000	
8	 C08	1.599	-2.656	-0.643	C.2	1	UNK1	0.000	
9	 C09	-2.889	-0.471	-0.149	C.2	1	UNK1	0.000	
10	 C10	2.810	-0.063	-0.672	C.2	1	UNK1	0.000	
11	 C11	-1.602	2.114	-0.280	C.2	1	UNK1	0.000	
12	 C12	1.207	2.361	-0.855	C.3	1	UNK1	0.000	
13	 C13	-2.567	-2.904	0.474	C.3	1	UNK1	0.000	
14	 C14	0.972	-4.040	-0.715	C.3	1	UNK1	0.000	
15	 C15	-0.450	-4.104	-0.193	C.2	1	UNK1	0.000	
16	 C16	3.512	1.223	-0.533	C.2	1	UNK1	0.000	
17	 C17	-0.960	3.377	-0.128	C.2	1	UNK1	0.000	
18	 C18	-3.662	0.706	-0.105	C.2	1	UNK1	0.000	
19	 C19	2.746	2.485	-0.880	C.3	1	UNK1	0.000	
20	 C20	-3.014	1.987	-0.159	C.2	1	UNK1	0.000	
21	 C21	-3.463	-1.732	0.140	C.2	1	UNK1	0.000	
22	 C22	0.441	3.507	-0.230	C.2	1	UNK1	0.000	
23	 C23	3.060	-2.609	-0.554	C.2	1	UNK1	0.000	
24	 C24	5.577	0.081	0.077	C.2	1	UNK1	0.000	
25	 C25	4.821	1.298	-0.175	C.2	1	UNK1	0.000	
26	 C26	3.716	-1.278	-0.887	C.3	1	UNK1	0.000	
27	 C27	5.086	-1.127	-0.236	C.2	1	UNK1	0.000	
28	 C28	1.085	4.708	0.098	C.2	1	UNK1	0.000	
29	 C29	3.305	3.736	-0.211	C.2	1	UNK1	0.000	
30	 C30	2.543	4.771	0.172	C.2	1	UNK1	0.000	
31	 C31	-3.731	3.193	0.016	C.2	1	UNK1	0.000	
32	 C32	-1.717	4.529	0.158	C.2	1	UNK1	0.000	
33	 C33	-3.104	4.431	0.185	C.2	1	UNK1	0.000	
34	 C34	-4.845	-1.873	0.314	C.2	1	UNK1	0.000	
35	 C35	-5.059	0.519	0.075	C.2	1	UNK1	0.000	
36	 C36	-5.644	-0.741	0.251	C.2	1	UNK1	0.000	
37	 C37	-1.026	-5.298	0.097	C.2	1	UNK1	0.000	
38	 C38	-3.228	-4.266	0.394	C.2	1	UNK1	0.000	
39	 C39	-2.475	-5.373	0.273	C.2	1	UNK1	0.000	
40	 C40	1.836	-5.152	-0.146	C.2	1	UNK1	0.000	
41	 C41	3.795	-3.690	-0.185	C.2	1	UNK1	0.000	
42	 C42	3.144	-4.967	0.081	C.2	1	UNK1	0.000	
43	 C43	5.841	-2.342	-0.009	C.2	1	UNK1	0.000	
44	 C44	5.238	-3.538	-0.023	C.2	1	UNK1	0.000	
45	 C45	5.445	2.611	-0.029	C.2	1	UNK1	0.000	
46	 C46	4.742	3.752	-0.023	C.2	1	UNK1	0.000	
47	 C47	1.164	-6.420	0.074	C.2	1	UNK1	0.000	
48	 C48	-0.177	-6.489	0.130	C.2	1	UNK1	0.000	
49	 C49	-5.427	-3.202	0.539	C.2	1	UNK1	0.000	
50	 C50	-4.671	-4.310	0.547	C.2	1	UNK1	0.000	
51	 C51	-1.074	5.748	0.419	C.2	1	UNK1	0.000	
52	 C52	0.319	5.827	0.426	C.2	1	UNK1	0.000	
53	 H01	0.794	6.771	0.679	 H	1	UNK1	0.000	
54	 H02	6.518	2.641	0.138	 H	1	UNK1	0.000	
55	 H03	2.981	5.655	0.626	 H	1	UNK1	0.000	
56	 H04	6.559	0.188	0.527	 H	1	UNK1	0.000	
57	 H05	-1.652	6.638	0.656	 H	1	UNK1	0.000	
58	 H06	6.904	-2.271	0.199	 H	1	UNK1	0.000	
59	 H07	-4.815	3.198	0.093	 H	1	UNK1	0.000	
60	 H08	5.241	4.698	0.168	 H	1	UNK1	0.000	
61	 H09	-3.719	5.309	0.371	 H	1	UNK1	0.000	
62	 H10	-5.145	-5.280	0.667	 H	1	UNK1	0.000	
63	 H11	-6.721	-0.812	0.375	 H	1	UNK1	0.000	
64	 H12	-5.739	1.366	0.089	 H	1	UNK1	0.000	
65	 H13	-6.503	-3.273	0.660	 H	1	UNK1	0.000	
66	 H14	-2.926	-6.360	0.264	 H	1	UNK1	0.000	
67	 H15	3.760	-5.771	0.473	 H	1	UNK1	0.000	
68	 H16	1.763	-7.316	0.198	 H	1	UNK1	0.000	
69	 H17	-0.661	-7.447	0.289	 H	1	UNK1	0.000	
70	 H18	5.821	-4.435	0.164	 H	1	UNK1	0.000	
71	 H35	0.954	2.491	-1.926	 H	1	UNK1	0.000	
72	 H36	2.991	2.636	-1.948	 H	1	UNK1	0.000	
73	 H45	-1.633	-0.400	-1.771	 H	1	UNK1	0.000	
74	 H50	3.906	-1.308	-1.974	 H	1	UNK1	0.000	
75	 H65	0.898	-4.253	-1.797	 H	1	UNK1	0.000	
76	 H70	-2.382	-2.771	1.557	 H	1	UNK1	0.000	
@<TRIPOS>BOND
1 1 2 1
2 1 3 1
3 1 7 2
4 2 4 1
5 2 8 2
6 3 5 1
7 3 9 1
8 3 73 1
9 4 6 1
10 4 10 2
11 5 6 2
12 5 11 1
13 6 12 1
14 7 13 1
15 7 15 1
16 8 14 1
17 8 23 1
18 9 18 2
19 9 21 1
20 10 16 1
21 10 26 1
22 11 17 1
23 11 20 2
24 12 19 1
25 12 22 1
26 12 71 1
27 13 21 1
28 13 38 1
29 13 76 1
30 14 15 1
31 14 40 1
32 14 75 1
33 15 37 2
34 16 19 1
35 16 25 2
36 17 22 1
37 17 32 2
38 18 20 1
39 18 35 1
40 19 29 1
41 19 72 1
42 20 31 1
43 21 34 2
44 22 28 2
45 23 26 1
46 23 41 2
47 24 25 1
48 24 27 2
49 24 56 1
50 25 45 1
51 26 27 1
52 26 74 1
53 27 43 1
54 28 30 1
55 28 52 1
56 29 30 2
57 29 46 1
58 30 55 1
59 31 33 2
60 31 59 1
61 32 33 1
62 32 51 1
63 33 61 1
64 34 36 1
65 34 49 1
66 35 36 2
67 35 64 1
68 36 63 1
69 37 39 1
70 37 48 1
71 38 39 2
72 38 50 1
73 39 66 1
74 40 42 2
75 40 47 1
76 41 42 1
77 41 44 1
78 42 67 1
79 43 44 2
80 43 58 1
81 44 70 1
82 45 46 2
83 45 54 1
84 46 60 1
85 47 48 2
86 47 68 1
87 48 69 1
88 49 50 2
89 49 65 1
90 50 62 1
91 51 52 2
92 51 57 1
93 52 53 1
@<TRIPOS>SUBSTRUCTURE
1	UNK1	1	GROUP	1 ****	UNK
