# created with PyMOL 2.5.5
@<TRIPOS>MOLECULE
31423
31 35 1                 
SMALL
USER_CHARGES
@<TRIPOS>ATOM
1	 C01	-0.841	0.117	-0.091	C.2	1	UNK1	0.000	
2	 C02	0.564	0.125	-0.158	C.2	1	UNK1	0.000	
3	 C03	-1.546	1.337	-0.076	C.2	1	UNK1	0.000	
4	 C04	1.276	1.328	-0.067	C.2	1	UNK1	0.000	
5	 C05	-1.560	-1.111	-0.024	C.2	1	UNK1	0.000	
6	 C06	1.312	-1.183	-0.390	C.3	1	UNK1	0.000	
7	 C07	-0.815	2.540	-0.059	C.2	1	UNK1	0.000	
8	 C08	0.582	2.541	-0.045	C.2	1	UNK1	0.000	
9	 C09	-0.821	-2.390	0.150	C.2	1	UNK1	0.000	
10	 C10	0.520	-2.407	0.073	C.2	1	UNK1	0.000	
11	 C11	-2.948	1.317	-0.081	C.2	1	UNK1	0.000	
12	 C12	2.755	1.294	0.020	C.2	1	UNK1	0.000	
13	 C13	-2.952	-1.106	-0.054	C.2	1	UNK1	0.000	
14	 C14	2.754	-1.164	0.109	C.2	1	UNK1	0.000	
15	 C15	-3.642	0.104	-0.105	C.2	1	UNK1	0.000	
16	 C16	3.414	0.129	0.185	C.2	1	UNK1	0.000	
17	 C17	2.629	-3.561	0.501	C.2	1	UNK1	0.000	
18	 C18	1.275	-3.607	0.413	C.2	1	UNK1	0.000	
19	 C22	3.383	-2.307	0.433	C.2	1	UNK1	0.000	
20	 H01	4.453	-2.337	0.659	 H	1	UNK1	0.000	
21	 H02	3.204	-4.476	0.664	 H	1	UNK1	0.000	
22	 H03	0.726	-4.534	0.606	 H	1	UNK1	0.000	
23	 H04	4.497	0.130	0.397	 H	1	UNK1	0.000	
24	 H05	3.291	2.249	-0.015	 H	1	UNK1	0.000	
25	 H06	-1.402	-3.301	0.350	 H	1	UNK1	0.000	
26	 H07	-3.506	-2.048	-0.034	 H	1	UNK1	0.000	
27	 H08	1.128	3.482	-0.014	 H	1	UNK1	0.000	
28	 H09	-1.339	3.494	-0.057	 H	1	UNK1	0.000	
29	 H10	1.389	-1.271	-1.487	 H	1	UNK1	0.000	
30	 H11	-3.522	2.243	-0.070	 H	1	UNK1	0.000	
31	 H12	-4.729	0.112	-0.160	 H	1	UNK1	0.000	
@<TRIPOS>BOND
1 1 2 1
2 1 3 2
3 1 5 1
4 2 4 2
5 2 6 1
6 3 7 1
7 3 11 1
8 4 8 1
9 4 12 1
10 5 9 1
11 5 13 2
12 6 10 1
13 6 14 1
14 6 29 1
15 7 8 2
16 7 28 1
17 8 27 1
18 9 10 2
19 9 25 1
20 10 18 1
21 11 15 2
22 11 30 1
23 12 16 2
24 12 24 1
25 13 15 1
26 13 26 1
27 14 16 1
28 14 19 2
29 15 31 1
30 16 23 1
31 17 18 2
32 17 19 1
33 17 21 1
34 18 22 1
35 19 20 1
@<TRIPOS>SUBSTRUCTURE
1	UNK1	1	GROUP	1 ****	UNK
