# created with PyMOL 2.5.5
@<TRIPOS>MOLECULE
31423
30 34 1                 
SMALL
USER_CHARGES
@<TRIPOS>ATOM
1	 C01	-0.731	0.035	0.007	C.2	1	UNK1	0.000	
2	 C17	2.742	-3.662	0.169	C.2	1	UNK1	0.000	
3	 C02	0.678	0.019	0.030	C.2	1	UNK1	0.000	
4	 C18	1.347	-3.652	0.146	C.2	1	UNK1	0.000	
5	 C22	3.451	-2.462	0.145	C.2	1	UNK1	0.000	
6	 C03	-1.432	1.261	-0.040	C.2	1	UNK1	0.000	
7	 C04	1.396	1.235	0.006	C.2	1	UNK1	0.000	
8	 C05	-1.447	-1.180	0.031	C.2	1	UNK1	0.000	
9	 C06	1.363	-1.217	0.076	C.2	1	UNK1	0.000	
10	 C07	-0.706	2.459	-0.063	C.2	1	UNK1	0.000	
11	 C08	0.692	2.446	-0.040	C.2	1	UNK1	0.000	
12	 C09	-0.697	-2.450	0.079	C.2	1	UNK1	0.000	
13	 C10	0.648	-2.439	0.100	C.2	1	UNK1	0.000	
14	 C11	-2.835	1.246	-0.061	C.2	1	UNK1	0.000	
15	 C12	2.796	1.200	0.029	C.2	1	UNK1	0.000	
16	 C13	-2.845	-1.172	0.008	C.2	1	UNK1	0.000	
17	 C14	2.777	-1.232	0.099	C.2	1	UNK1	0.000	
18	 C15	-3.536	0.038	-0.038	C.2	1	UNK1	0.000	
19	 C16	3.478	-0.018	0.075	C.2	1	UNK1	0.000	
20	 H01	4.538	-2.493	0.163	 H	1	UNK1	0.000	
21	 H02	3.277	-4.608	0.204	 H	1	UNK1	0.000	
22	 H04	0.817	-4.602	0.165	 H	1	UNK1	0.000	
23	 H17	-1.223	3.416	-0.098	 H	1	UNK1	0.000	
24	 H18	1.226	3.393	-0.059	 H	1	UNK1	0.000	
25	 H19	-1.286	-3.360	0.096	 H	1	UNK1	0.000	
26	 H21	-3.395	2.178	-0.097	 H	1	UNK1	0.000	
27	 H22	3.371	2.123	0.012	 H	1	UNK1	0.000	
28	 H23	-3.404	-2.104	0.026	 H	1	UNK1	0.000	
29	 H25	-4.623	0.041	-0.055	 H	1	UNK1	0.000	
30	 H26	4.566	-0.010	0.092	 H	1	UNK1	0.000	
@<TRIPOS>BOND
1 1 3 1
2 1 6 2
3 1 8 1
4 2 4 2
5 2 21 1
6 3 7 2
7 3 9 1
8 4 22 1
9 2 5 1
10 5 20 1
11 6 10 1
12 6 14 1
13 7 11 1
14 7 15 1
15 8 12 1
16 8 16 2
17 9 13 1
18 9 17 2
19 10 11 2
20 10 23 1
21 11 24 1
22 12 13 2
23 12 25 1
24 4 13 1
25 14 18 2
26 14 26 1
27 15 19 2
28 15 27 1
29 16 18 1
30 16 28 1
31 5 17 2
32 17 19 1
33 18 29 1
34 19 30 1
@<TRIPOS>SUBSTRUCTURE
1	UNK1	1	GROUP	1 ****	UNK
