# created with PyMOL 2.5.5
@<TRIPOS>MOLECULE
9115
41 48 1                 
SMALL
USER_CHARGES
@<TRIPOS>ATOM
1	 C01	-0.481	-1.317	0.003	C.2	1	UNK1	0.000	
2	 C02	0.916	-1.095	-0.026	C.2	1	UNK1	0.000	
3	 C03	-1.372	-0.219	0.012	C.2	1	UNK1	0.000	
4	 C04	1.424	0.225	-0.046	C.2	1	UNK1	0.000	
5	 C05	-0.865	1.101	-0.008	C.2	1	UNK1	0.000	
6	 C06	0.532	1.323	-0.037	C.2	1	UNK1	0.000	
7	 C07	-0.988	-2.636	0.023	C.2	1	UNK1	0.000	
8	 C08	1.803	-2.194	-0.036	C.2	1	UNK1	0.000	
9	 C09	-2.767	-0.441	0.041	C.2	1	UNK1	0.000	
10	 C10	2.820	0.447	-0.075	C.2	1	UNK1	0.000	
11	 C11	-1.756	2.198	0.002	C.2	1	UNK1	0.000	
12	 C12	1.035	2.642	-0.057	C.2	1	UNK1	0.000	
13	 C13	-2.374	-2.839	0.051	C.2	1	UNK1	0.000	
14	 C14	1.285	-3.496	-0.016	C.2	1	UNK1	0.000	
15	 C15	-0.094	-3.714	0.013	C.2	1	UNK1	0.000	
16	 C16	3.310	1.768	-0.095	C.2	1	UNK1	0.000	
17	 C17	-1.240	3.500	-0.018	C.2	1	UNK1	0.000	
18	 C18	-3.636	0.658	0.050	C.2	1	UNK1	0.000	
19	 C19	2.421	2.850	-0.085	C.2	1	UNK1	0.000	
20	 C20	-3.136	1.962	0.031	C.2	1	UNK1	0.000	
21	 C21	-3.253	-1.754	0.061	C.2	1	UNK1	0.000	
22	 C22	0.139	3.719	-0.047	C.2	1	UNK1	0.000	
23	 C23	3.184	-1.962	-0.065	C.2	1	UNK1	0.000	
24	 C24	5.619	0.993	-0.135	C.2	1	UNK1	0.000	
25	 C25	4.757	2.019	-0.125	C.2	1	UNK1	0.000	
26	 C26	3.697	-0.656	-0.084	C.2	1	UNK1	0.000	
27	 C27	5.195	-0.449	-0.115	C.3	1	UNK1	0.000	
28	 H01	5.110	3.045	-0.140	 H	1	UNK1	0.000	
29	 H02	6.686	1.192	-0.157	 H	1	UNK1	0.000	
30	 H04	5.635	-0.927	0.768	 H	1	UNK1	0.000	
31	 H06	5.600	-0.940	-1.008	 H	1	UNK1	0.000	
32	 H25	-2.783	-3.847	0.067	 H	1	UNK1	0.000	
33	 H26	1.952	-4.355	-0.022	 H	1	UNK1	0.000	
34	 H27	-0.464	-4.737	0.028	 H	1	UNK1	0.000	
35	 H28	2.812	3.865	-0.101	 H	1	UNK1	0.000	
36	 H29	-1.908	4.358	-0.011	 H	1	UNK1	0.000	
37	 H30	-4.323	-1.946	0.083	 H	1	UNK1	0.000	
38	 H31	-3.838	2.793	0.038	 H	1	UNK1	0.000	
39	 H33	3.875	-2.803	-0.072	 H	1	UNK1	0.000	
40	 H34	-4.713	0.509	0.073	 H	1	UNK1	0.000	
41	 H35	0.506	4.743	-0.062	 H	1	UNK1	0.000	
@<TRIPOS>BOND
1 1 2 1
2 1 3 1
3 1 7 2
4 2 4 1
5 2 8 2
6 3 5 1
7 3 9 2
8 4 6 1
9 4 10 2
10 5 6 1
11 5 11 2
12 6 12 2
13 7 13 1
14 7 15 1
15 8 14 1
16 8 23 1
17 9 18 1
18 9 21 1
19 10 16 1
20 10 26 1
21 11 17 1
22 11 20 1
23 12 19 1
24 12 22 1
25 13 21 2
26 13 32 1
27 14 15 2
28 14 33 1
29 15 34 1
30 16 19 2
31 16 25 1
32 17 22 2
33 17 36 1
34 18 20 2
35 18 40 1
36 19 35 1
37 20 38 1
38 21 37 1
39 22 41 1
40 23 26 2
41 23 39 1
42 24 29 1
43 24 25 2
44 25 28 1
45 26 27 1
46 24 27 1
47 27 30 1
48 27 31 1
@<TRIPOS>SUBSTRUCTURE
1	UNK1	1	GROUP	1 ****	UNK
