# created with PyMOL 2.5.5
@<TRIPOS>MOLECULE
9115
45 53 1                 
SMALL
USER_CHARGES
@<TRIPOS>ATOM
1	 C01	-0.584	-1.458	0.007	C.2	1	UNK1	0.000	
2	 C02	0.827	-1.364	-0.007	C.2	1	UNK1	0.000	
3	 C03	-1.367	-0.283	0.012	C.2	1	UNK1	0.000	
4	 C04	1.460	-0.095	-0.010	C.2	1	UNK1	0.000	
5	 C05	-0.737	0.983	-0.013	C.2	1	UNK1	0.000	
6	 C06	0.678	1.079	-0.033	C.2	1	UNK1	0.000	
7	 C07	-1.213	-2.724	0.017	C.2	1	UNK1	0.000	
8	 C08	1.602	-2.544	-0.016	C.2	1	UNK1	0.000	
9	 C09	-2.777	-0.376	0.041	C.2	1	UNK1	0.000	
10	 C10	2.867	-0.005	0.014	C.2	1	UNK1	0.000	
11	 C11	-1.528	2.152	-0.017	C.2	1	UNK1	0.000	
12	 C12	1.297	2.349	-0.078	C.2	1	UNK1	0.000	
13	 C13	-2.611	-2.799	0.064	C.2	1	UNK1	0.000	
14	 C14	0.965	-3.792	-0.043	C.2	1	UNK1	0.000	
15	 C15	-0.427	-3.881	-0.020	C.2	1	UNK1	0.000	
16	 C16	3.498	1.268	0.009	C.2	1	UNK1	0.000	
17	 C17	-0.903	3.403	-0.049	C.2	1	UNK1	0.000	
18	 C18	-3.543	0.795	0.033	C.2	1	UNK1	0.000	
19	 C19	2.714	2.457	-0.114	C.2	1	UNK1	0.000	
20	 C20	-2.924	2.045	0.011	C.2	1	UNK1	0.000	
21	 C21	-3.384	-1.638	0.077	C.2	1	UNK1	0.000	
22	 C22	0.495	3.518	-0.092	C.2	1	UNK1	0.000	
23	 C23	2.995	-2.448	0.004	C.2	1	UNK1	0.000	
24	 C24	5.735	0.012	0.201	C.2	1	UNK1	0.000	
25	 C25	5.023	1.318	0.151	C.3	1	UNK1	0.000	
26	 C26	3.629	-1.197	0.047	C.2	1	UNK1	0.000	
27	 C27	5.092	-1.161	0.127	C.2	1	UNK1	0.000	
28	 C28	1.093	4.779	-0.144	C.2	1	UNK1	0.000	
29	 C29	3.271	3.750	-0.272	C.2	1	UNK1	0.000	
30	 C30	2.470	4.895	-0.250	C.2	1	UNK1	0.000	
31	 H01	5.262	1.869	1.071	 H	1	UNK1	0.000	
32	 H02	5.426	1.882	-0.708	 H	1	UNK1	0.000	
33	 H03	2.943	5.873	-0.320	 H	1	UNK1	0.000	
34	 H04	6.810	0.023	0.303	 H	1	UNK1	0.000	
35	 H05	0.481	5.680	-0.105	 H	1	UNK1	0.000	
36	 H06	5.645	-2.096	0.127	 H	1	UNK1	0.000	
37	 H08	4.335	3.953	-0.432	 H	1	UNK1	0.000	
38	 H25	-3.110	-3.765	0.090	 H	1	UNK1	0.000	
39	 H26	1.553	-4.707	-0.082	 H	1	UNK1	0.000	
40	 H27	-0.892	-4.865	-0.031	 H	1	UNK1	0.000	
41	 H29	-1.510	4.306	-0.042	 H	1	UNK1	0.000	
42	 H30	-4.468	-1.728	0.117	 H	1	UNK1	0.000	
43	 H31	-3.547	2.937	0.016	 H	1	UNK1	0.000	
44	 H33	3.606	-3.349	-0.013	 H	1	UNK1	0.000	
45	 H34	-4.629	0.746	0.044	 H	1	UNK1	0.000	
@<TRIPOS>BOND
1 1 2 1
2 1 3 1
3 1 7 2
4 2 4 1
5 2 8 2
6 3 5 1
7 3 9 2
8 4 6 1
9 4 10 2
10 5 6 1
11 5 11 2
12 6 12 2
13 7 13 1
14 7 15 1
15 8 14 1
16 8 23 1
17 9 18 1
18 9 21 1
19 10 16 1
20 10 26 1
21 11 17 1
22 11 20 1
23 12 19 1
24 12 22 1
25 13 21 2
26 13 38 1
27 14 15 2
28 14 39 1
29 15 40 1
30 16 19 2
31 16 25 1
32 17 22 2
33 17 41 1
34 18 20 2
35 18 45 1
36 19 29 2
37 20 43 1
38 21 42 1
39 22 28 1
40 23 26 2
41 23 44 1
42 24 34 1
43 24 25 1
44 25 31 1
45 25 32 1
46 26 27 1
47 24 27 2
48 27 36 1
49 28 35 1
50 29 30 1
51 29 37 1
52 28 30 2
53 30 33 1
@<TRIPOS>SUBSTRUCTURE
1	UNK1	1	GROUP	1 ****	UNK
