# created with PyMOL 2.5.5
@<TRIPOS>MOLECULE
8671
36 40 1                 
SMALL
USER_CHARGES
@<TRIPOS>ATOM
1	 C01	5.332	-0.703	0.000	C.2	1	UNK0	0.000	
2	 C02	5.332	0.703	0.000	C.2	1	UNK0	0.000	
3	 C03	7.771	-0.706	0.000	C.2	1	UNK0	0.000	
4	 C04	7.771	0.706	0.000	C.2	1	UNK0	0.000	
5	 C05	6.547	-1.397	0.000	C.2	1	UNK0	0.000	
6	 C06	6.547	1.397	0.000	C.2	1	UNK0	0.000	
7	 C07	2.889	-0.741	0.000	C.2	1	UNK0	0.000	
8	 C08	2.890	0.740	0.000	C.2	1	UNK0	0.000	
9	 C09	10.221	-0.705	0.000	C.2	1	UNK0	0.000	
10	 C10	10.221	0.706	0.000	C.2	1	UNK0	0.000	
11	 C11	4.050	-1.425	0.000	C.2	1	UNK0	0.000	
12	 C12	4.050	1.425	0.000	C.2	1	UNK0	0.000	
13	 C13	8.996	-1.393	0.000	C.2	1	UNK0	0.000	
14	 C14	8.996	1.393	0.000	C.2	1	UNK0	0.000	
15	 C15	1.603	-1.437	0.000	C.2	1	UNK0	0.000	
16	 C16	1.604	1.436	0.000	C.2	1	UNK0	0.000	
17	 C17	11.447	-1.392	0.000	C.2	1	UNK0	0.000	
18	 C18	11.447	1.392	0.000	C.2	1	UNK0	0.000	
19	 C19	0.459	-0.728	0.000	C.2	1	UNK0	0.000	
20	 C20	0.460	0.728	0.000	C.2	1	UNK0	0.000	
21	 C21	12.656	-0.696	0.000	C.2	1	UNK0	0.000	
22	   C	12.656	0.696	0.000	C.2	1	UNK0	0.000	
23	 H22	6.543	-2.485	0.000	 H	1	UNK0	0.000	
24	 H23	6.543	2.485	0.000	 H	1	UNK0	0.000	
25	 H24	4.076	-2.508	0.000	 H	1	UNK0	0.000	
26	 H25	4.076	2.509	0.000	 H	1	UNK0	0.000	
27	 H26	8.998	-2.481	0.000	 H	1	UNK0	0.000	
28	 H27	8.998	2.481	0.000	 H	1	UNK0	0.000	
29	 H28	1.584	-2.522	0.000	 H	1	UNK0	0.000	
30	 H29	1.586	2.520	0.000	 H	1	UNK0	0.000	
31	 H30	11.468	-2.480	0.000	 H	1	UNK0	0.000	
32	 H31	11.468	2.480	0.000	 H	1	UNK0	0.000	
33	 H32	-0.503	-1.229	0.000	 H	1	UNK0	0.000	
34	 H33	-0.502	1.230	0.000	 H	1	UNK0	0.000	
35	 H34	13.597	-1.240	0.000	 H	1	UNK0	0.000	
36	   H	13.597	1.240	0.000	 H	1	UNK0	0.000	
@<TRIPOS>BOND
1 1 2 1
2 1 5 2
3 1 11 1
4 2 6 2
5 2 12 1
6 3 4 1
7 3 5 1
8 3 13 2
9 4 6 1
10 4 14 2
11 5 23 1
12 6 24 1
13 7 8 1
14 7 11 2
15 7 15 1
16 8 12 2
17 8 16 1
18 9 10 1
19 9 13 1
20 9 17 2
21 10 14 1
22 10 18 2
23 11 25 1
24 12 26 1
25 13 27 1
26 14 28 1
27 15 19 2
28 15 29 1
29 16 20 2
30 16 30 1
31 17 21 1
32 17 31 1
33 18 22 1
34 18 32 1
35 19 20 1
36 19 33 1
37 20 34 1
38 21 22 2
39 21 35 1
40 22 36 1
@<TRIPOS>SUBSTRUCTURE
1	UNK0	1	GROUP	1 ****	UNK
