# created with PyMOL 2.5.5
@<TRIPOS>MOLECULE
271
32 36 1                 
SMALL
USER_CHARGES
@<TRIPOS>ATOM
1	 C01	-1.419	0.000	0.000	C.2	1	UNK1	0.000	
2	 C02	1.419	0.000	0.000	C.2	1	UNK1	0.000	
3	 C03	0.716	1.234	0.000	C.2	1	UNK1	0.000	
4	 C04	-0.716	1.234	0.000	C.2	1	UNK1	0.000	
5	 C05	0.716	-1.234	0.000	C.2	1	UNK1	0.000	
6	 C06	-0.716	-1.234	0.000	C.2	1	UNK1	0.000	
7	 C07	-2.849	0.000	0.000	C.2	1	UNK1	0.000	
8	 C08	2.849	0.000	0.000	C.2	1	UNK1	0.000	
9	 C09	1.491	2.421	0.000	C.2	1	UNK1	0.000	
10	 C10	1.491	-2.422	0.000	C.2	1	UNK1	0.000	
11	 C11	-1.491	2.421	0.000	C.2	1	UNK1	0.000	
12	 C12	-1.491	-2.422	0.000	C.2	1	UNK1	0.000	
13	 C13	-3.560	-1.202	0.000	C.2	1	UNK1	0.000	
14	 C14	-3.559	1.202	0.000	C.2	1	UNK1	0.000	
15	 C15	3.560	-1.202	0.000	C.2	1	UNK1	0.000	
16	 C16	3.560	1.202	0.000	C.2	1	UNK1	0.000	
17	 C17	2.884	2.408	0.000	C.2	1	UNK1	0.000	
18	 C18	2.884	-2.408	0.000	C.2	1	UNK1	0.000	
19	 C19	-2.884	2.409	0.000	C.2	1	UNK1	0.000	
20	 C20	-2.884	-2.409	0.000	C.2	1	UNK1	0.000	
21	 H21	1.025	3.403	0.000	 H	1	UNK1	0.000	
22	 H22	1.025	-3.403	0.000	 H	1	UNK1	0.000	
23	 H23	-1.025	3.403	0.000	 H	1	UNK1	0.000	
24	 H24	-1.025	-3.403	0.000	 H	1	UNK1	0.000	
25	 H25	-4.647	-1.211	0.000	 H	1	UNK1	0.000	
26	 H26	-4.647	1.211	0.000	 H	1	UNK1	0.000	
27	 H27	4.648	-1.211	0.000	 H	1	UNK1	0.000	
28	 H28	4.648	1.211	0.000	 H	1	UNK1	0.000	
29	 H29	3.436	3.343	0.000	 H	1	UNK1	0.000	
30	 H30	3.436	-3.344	0.000	 H	1	UNK1	0.000	
31	 H31	-3.436	3.344	0.000	 H	1	UNK1	0.000	
32	 H32	-3.436	-3.344	0.000	 H	1	UNK1	0.000	
@<TRIPOS>BOND
1 1 4 ar
2 1 6 ar
3 1 7 ar
4 2 3 ar
5 2 5 ar
6 2 8 ar
7 3 4 ar
8 3 9 ar
9 4 11 ar
10 5 6 ar
11 5 10 ar
12 6 12 ar
13 7 13 ar
14 7 14 ar
15 8 15 ar
16 8 16 ar
17 9 17 ar
18 9 21 1
19 10 18 ar
20 10 22 1
21 11 19 ar
22 11 23 1
23 12 20 ar
24 12 24 1
25 13 20 ar
26 13 25 1
27 14 19 ar
28 14 26 1
29 15 18 ar
30 15 27 1
31 16 17 ar
32 16 28 1
33 17 29 1
34 18 30 1
35 19 31 1
36 20 32 1
@<TRIPOS>SUBSTRUCTURE
1	UNK1	1	GROUP	1 ****	UNK
