# created with PyMOL 2.5.5
@<TRIPOS>MOLECULE
7080
30 33 1                 
SMALL
USER_CHARGES
@<TRIPOS>ATOM
1	 C01	0.018	0.703	0.000	C.2	1	UNK0	0.000	
2	 C02	0.018	-0.703	0.000	C.2	1	UNK0	0.000	
3	 C03	-2.425	0.741	-0.000	C.2	1	UNK0	0.000	
4	 C04	-2.424	-0.741	-0.000	C.2	1	UNK0	0.000	
5	 C05	2.456	0.707	0.000	C.2	1	UNK0	0.000	
6	 C06	2.456	-0.707	0.000	C.2	1	UNK0	0.000	
7	 C07	1.232	1.398	0.000	C.2	1	UNK0	0.000	
8	 C08	1.233	-1.399	0.000	C.2	1	UNK0	0.000	
9	 C09	-1.264	1.424	-0.000	C.2	1	UNK0	0.000	
10	 C10	-1.264	-1.425	0.000	C.2	1	UNK0	0.000	
11	 C11	-3.711	1.437	-0.000	C.2	1	UNK0	0.000	
12	 C12	-3.711	-1.436	-0.000	C.2	1	UNK0	0.000	
13	 C13	3.681	1.393	0.000	C.2	1	UNK0	0.000	
14	 C14	3.681	-1.393	0.000	C.2	1	UNK0	0.000	
15	 C15	-4.856	0.728	-0.000	C.2	1	UNK0	0.000	
16	 C16	-4.855	-0.727	-0.000	C.2	1	UNK0	0.000	
17	 C17	4.890	0.696	0.000	C.2	1	UNK0	0.000	
18	   C	4.890	-0.696	0.000	C.2	1	UNK0	0.000	
19	 H18	1.229	2.486	0.000	 H	1	UNK0	0.000	
20	 H19	1.229	-2.486	0.000	 H	1	UNK0	0.000	
21	 H20	-1.239	2.508	-0.000	 H	1	UNK0	0.000	
22	 H21	-1.238	-2.509	0.000	 H	1	UNK0	0.000	
23	 H22	-3.729	2.521	-0.000	 H	1	UNK0	0.000	
24	 H23	-3.729	-2.520	-0.000	 H	1	UNK0	0.000	
25	 H24	3.703	2.481	0.000	 H	1	UNK0	0.000	
26	 H25	3.703	-2.481	0.000	 H	1	UNK0	0.000	
27	 H26	-5.818	1.230	-0.000	 H	1	UNK0	0.000	
28	 H27	-5.817	-1.230	-0.000	 H	1	UNK0	0.000	
29	 H28	5.831	1.240	0.000	 H	1	UNK0	0.000	
30	   H	5.831	-1.240	0.000	 H	1	UNK0	0.000	
@<TRIPOS>BOND
1 1 2 ar
2 1 7 ar
3 1 9 ar
4 2 8 ar
5 2 10 ar
6 3 4 ar
7 3 9 ar
8 3 11 ar
9 4 10 ar
10 4 12 ar
11 5 6 ar
12 5 7 ar
13 5 13 ar
14 6 8 ar
15 6 14 ar
16 7 19 1
17 8 20 1
18 9 21 1
19 10 22 1
20 11 15 ar
21 11 23 1
22 12 16 ar
23 12 24 1
24 13 17 ar
25 13 25 1
26 14 18 ar
27 14 26 1
28 15 16 ar
29 15 27 1
30 16 28 1
31 17 18 ar
32 17 29 1
33 18 30 1
@<TRIPOS>SUBSTRUCTURE
1	UNK0	1	GROUP	1 ****	UNK
